172
frame
C -1.0004595 9.19525144 0.00835858 4.06186506
C -1.00287968 10.41444364 0.00677403 4.06185437
C 1.46851103 7.76967461 0.00626087 4.06184973
C 2.5234389 8.38078792 0.00484709 4.06187214
C 1.4687414 4.91875977 0.0049727 4.06185763
C 2.52485635 4.30960955 0.00281752 4.06185506
C 3.76507136 3.59385815 0.00069232 3.93813533
C 3.76540186 2.17487681 -0.00117202 3.93813641
C 4.99441014 1.46559045 -0.00319816 3.93814188
C 6.2232023 2.17525302 -0.00277288 3.9381288
C 6.22290249 3.59427097 -0.00100937 3.93815345
C 4.99384468 4.30355875 0.00075918 3.93814814
C 4.99334096 5.73550026 0.00273066 4.06186995
C -2.22775883 0.13239722 0.0034536 3.93813066
C 4.99194196 6.95467316 0.00400378 4.06184491
C -2.22748143 -1.28662085 0.00116385 3.93815905
C -0.99841149 -1.99585725 -0.00077482 3.93813936
C 0.23038213 -1.28621938 -0.00112804 3.93812468
C 0.22993714 0.13276983 0.00121925 3.93815035
C -0.99902371 0.84213981 0.00376053 3.93813567
C -0.99938271 2.27409725 0.00588912 4.06185957
C -1.00021301 3.49329108 0.00728909 4.06185767
C 1.46976636 0.84897965 0.00063845 4.06185589
C 2.5254596 1.45877789 -0.0005299 4.06187181
C 1.47058289 -2.00204364 -0.00415345 4.06186512
C 2.52623789 -2.61199675 -0.0069689 4.06185128
C -8.22280679 3.59067264 -0.00071782 3.93815311
C -8.22144407 2.17164777 -0.00081668 3.93813697
C -6.99179314 1.4634513 0.00092628 3.93813622
C -5.76360774 2.17418073 0.00332284 3.93814728
C -5.76503191 3.59318932 0.0041812 3.93813419
C -6.99464385 4.30143807 0.0020313 3.93813817
C -6.99574916 5.73337329 0.00304379 4.06186657
C -6.99301541 6.95257633 0.00422718 4.06186277
C -4.52558071 4.31022345 0.0068645 4.06186202
C -3.46931444 4.91906234 0.00892652 4.06185972
C -4.52296636 1.45918367 0.00465109 4.06186352
C -3.46785319 0.84831327 0.00459507 4.06185806
C -2.2290891 7.05383219 0.00997271 3.93812953
C -2.22913605 5.63483709 0.00948478 3.9381506
C -1.00029375 4.92522473 0.00826492 3.93814023
C 0.22862549 5.63466617 0.00717935 3.93813718
C -8.22424387 10.51195122 0.00226775 3.93814
C -8.22315308 9.0929696 0.00230113 3.93812534
C -6.99367806 8.38448136 0.00472033 3.93815009
C -5.7652834 9.09485939 0.00718364 3.93814291
C -5.76636075 10.51385908 0.00644418 3.93813315
C -6.99586086 11.22236056 0.00390847 3.93815285
C -6.99681235 12.6543693 0.00309599 4.06186704
C -6.99562646 13.87359973 0.00271836 4.06187446
C -4.52684901 11.23081403 0.00740426 4.06185524
C -3.47147655 11.84124034 0.00672769 4.06186619
C -4.52475793 8.37974013 0.00931521 4.06186239
C -3.4691187 7.76981186 0.01028693 4.06184889
C 3.76832349 -10.2475803 -0.00321208 3.93814954
C 3.76785497 -11.66658912 -0.00179668 3.93812914
C 7.46278697 4.31059276 -0.00065335 4.06186631
C 8.51848648 4.92050469 0.00013808 4.06186224
C 7.46331744 1.45943922 -0.00317957 4.06185513
C 8.51876873 0.84915429 -0.00260585 4.06185048
C 4.99642283 -12.37655811 -0.00183912 3.93813209
C 6.22553027 -11.66754403 -0.00306081 3.93813291
C 6.22616694 -10.24853631 -0.00398478 3.93814663
C 4.99752146 -9.53852122 -0.00463957 3.93814788
C 4.99790629 -8.10657883 -0.00683295 4.06187651
C 4.99693699 -6.88739895 -0.00942793 4.06184545
C 7.4665827 -9.53304537 -0.00442646 4.06186348
C 8.52254714 -8.92360988 -0.00515148 4.0618552
C 7.46536595 -12.38380566 -0.00356188 4.06185552
C 8.52213087 -12.99180857 -0.00440036 4.06186243
C -2.22593857 -6.78745636 -0.00146144 3.93812751
C -2.22678833 -8.20645203 -0.00011576 3.93814521
C -0.99832128 -8.91672371 -0.00037265 3.93814577
C 0.23101472 -8.20802486 -0.00254115 3.93813057
C 3.76656954 -3.32756012 -0.00879163 3.93815115
C 3.76713791 -4.74657092 -0.00960982 3.93813745
C 4.99631317 -5.45552381 -0.01004751 3.93813148
C 6.2249031 -4.74558256 -0.00946545 3.93812768
C 6.22435024 -3.32659742 -0.00862106 3.93814971
C 4.99518676 -2.61750872 -0.00855678 3.93814309
C 4.9946424 -1.18552261 -0.00719065 4.06187825
C 4.99455134 0.03367897 -0.00526665 4.06184805
C 7.46425469 -2.61041138 -0.00660377 4.06185982
C 8.52067759 -2.00184268 -0.00377276 4.0618504
C 7.46509863 -5.46126168 -0.00846451 4.06185845
C 8.52012095 -6.07226935 -0.00629293 4.06186008
C 0.23179149 -6.78903874 -0.00445605 3.93814247
C -0.99662461 -6.07875586 -0.00343032 3.93813813
C -0.99605103 -4.64688229 -0.00381579 4.06186357
C -0.99795469 -3.4277246 -0.00249737 4.06185438
C 1.47212583 -6.07362279 -0.00710419 4.06184899
C 2.52741643 -5.46310952 -0.0087186 4.06186962
C 1.4709114 -8.92441263 -0.00250075 4.06186228
C 2.52823469 -9.53150196 -0.00297947 4.06186156
C -8.22100175 -3.32919835 -0.00132801 3.93814323
C -8.22072092 -4.74820921 -0.00180174 3.93813486
C -6.99165625 -5.45748952 -0.00225279 3.93814431
C -5.76291106 -4.74768915 -0.00181312 3.93814523
C -5.76323544 -3.3286781 -0.00112861 3.93813051
C -6.99227836 -2.61945859 -0.00073726 3.93814075
C -6.99256495 -1.18759689 4.725e-05 4.06185746
C -6.99066274 0.03157992 0.00052847 4.06185832
C -4.52334454 -2.61238686 -0.00082593 4.06185451
C -3.46747047 -2.00281768 0.00034677 4.06187133
C -4.52255831 -5.46316793 -0.00184569 4.06185819
C -3.46573032 -6.07104953 -0.00098888 4.06185484
C -1.00021487 7.76331165 0.00901533 3.93813009
C 0.22857996 7.05366117 0.00766234 3.93815112
H 6.73557972 3.92709469 3.40015891 None
H 6.73557972 3.92709469 2.70015891 None
H 15.76988965 -6.40507373 3.39277569 None
H 15.76988965 -6.40507373 2.69277569 None
H 2.22734759 6.49846313 3.40258474 None
H 2.22734759 6.49846313 2.70258474 None
H 15.71635269 9.16322095 3.40037036 None
H 15.71635269 9.16322095 2.70037036 None
H 2.24519324 1.30903156 3.40005319 None
H 2.24519324 1.30903156 2.70005319 None
H 2.20950194 11.68789469 3.4051163 None
H 2.20950194 11.68789469 2.7051163 None
H 15.73419834 3.97378939 3.3978388 None
H 15.73419834 3.97378939 2.6978388 None
H 2.19165628 16.87732625 3.40764785 None
H 2.19165628 16.87732625 2.70764785 None
H 15.752044 -1.21564217 3.39530725 None
H 15.752044 -1.21564217 2.69530725 None
H 11.22596621 6.54515782 3.40026463 None
H 11.22596621 6.54515782 2.70026463 None
H 6.71773407 9.11652626 3.40269047 None
H 6.71773407 9.11652626 2.70269047 None
H 6.69988842 14.30595782 3.40522202 None
H 6.69988842 14.30595782 2.70522202 None
H 11.20812056 11.73458939 3.40279619 None
H 11.20812056 11.73458939 2.70279619 None
H 11.24381186 1.35572626 3.39773308 None
H 11.24381186 1.35572626 2.69773308 None
H 6.75342538 -1.26233687 3.39762736 None
H 6.75342538 -1.26233687 2.69762736 None
H 11.26165751 -3.8337053 3.39520153 None
H 11.26165751 -3.8337053 2.69520153 None
H 11.26165751 -3.8337053 -2.70479847 None
H 11.26165751 -3.8337053 -3.40479847 None
H 2.20950194 11.68789469 -2.6948837 None
H 2.20950194 11.68789469 -3.3948837 None
H 11.22596621 6.54515782 -2.69973537 None
H 11.22596621 6.54515782 -3.39973537 None
H 6.69988842 14.30595782 -2.69477798 None
H 6.69988842 14.30595782 -3.39477798 None
H 2.22734759 6.49846313 -2.69741526 None
H 2.22734759 6.49846313 -3.39741526 None
H 15.76988965 -6.40507373 -2.70722431 None
H 15.76988965 -6.40507373 -3.40722431 None
H 6.73557972 3.92709469 -2.69984109 None
H 6.73557972 3.92709469 -3.39984109 None
H 15.71635269 9.16322095 -2.69962964 None
H 15.71635269 9.16322095 -3.39962964 None
H 2.24519324 1.30903156 -2.69994681 None
H 2.24519324 1.30903156 -3.39994681 None
H 15.752044 -1.21564217 -2.70469275 None
H 15.752044 -1.21564217 -3.40469275 None
H 2.19165628 16.87732625 -2.69235215 None
H 2.19165628 16.87732625 -3.39235215 None
H 6.75342538 -1.26233687 -2.70237264 None
H 6.75342538 -1.26233687 -3.40237264 None
H 6.71773407 9.11652626 -2.69730953 None
H 6.71773407 9.11652626 -3.39730953 None
H 11.20812056 11.73458939 -2.69720381 None
H 11.20812056 11.73458939 -3.39720381 None
H 15.73419834 3.97378939 -2.7021612 None
H 15.73419834 3.97378939 -3.4021612 None
H 11.24381186 1.35572626 -2.70226692 None
H 11.24381186 1.35572626 -3.40226692 None