516
frame
C 6.76734112 -15.44017666 0.0123594 3.93796714
C -3.99749694 7.46542225 0.01014687 4.06203607
C -3.9985203 8.68424172 0.01136719 4.06203649
C -1.52783297 6.03977792 0.00483285 4.06204707
C -0.4727318 6.649919 0.0025294 4.06203995
C -1.52762554 3.18820432 0.00290781 4.06203065
C -0.47187494 2.57919664 0.00067917 4.06202683
C 0.76915077 1.8632026 -0.00156961 3.93796108
C 0.76945333 0.44447 -0.00223848 3.93796895
C 1.9982257 -0.26471309 -0.00438308 3.93796019
C 3.22677583 0.44488963 -0.00551881 3.93796636
C 3.22645307 1.86366724 -0.00474643 3.93797196
C 1.99765167 2.5728575 -0.0029719 3.93796314
C 1.99728729 4.00565076 -0.00206074 4.06202897
C -5.22464461 -1.59887417 0.00100427 3.9379631
C 1.99686508 5.22447316 -0.00052763 4.06202825
C -5.22437449 -3.01766186 -0.00170106 3.93797568
C -3.99546488 -3.72673826 -0.00400101 3.93797174
C -2.76690583 -3.01711662 -0.0035407 3.93795837
C -2.76727023 -1.59838596 -0.00087204 3.93796677
C -3.99608531 -0.88928299 0.00139246 3.93796744
C -3.99631727 0.54350606 0.00359799 4.06203658
C -3.99691085 1.76231466 0.0045644 4.06203471
C -1.5266318 -0.88170642 -0.00080099 4.06203556
C -0.471217 -0.2721563 -0.00113736 4.06203199
C -1.52588887 -3.73323846 -0.0056704 4.06203691
C -0.47050991 -4.34289205 -0.00730531 4.06202737
C -11.22034886 1.8601743 -0.00056632 3.9379672
C -11.21941144 0.44142041 0.00168545 3.93796213
C -9.99020441 -0.26708968 0.00308196 3.93797181
C -8.76197796 0.44310261 0.00325 3.93795995
C -8.76297083 1.86184769 0.00242294 3.93796385
C -9.99213936 2.57036186 -5.604e-05 3.93796727
C -9.99285169 4.00314272 -0.00148231 4.06203615
C -9.99144797 5.22196791 -0.00240382 4.06203581
C -7.5225595 2.57899585 0.00380667 4.06203331
C 6.76733743 -16.8589369 0.01501262 3.93796117
C -6.46672969 3.18788346 0.00593363 4.06203838
C -7.52072917 -0.27256368 0.00371377 4.06202891
C -6.46549364 -0.88250987 0.00285817 4.06203239
C 7.99606794 -13.29801411 0.00712841 4.0620436
C 7.99605213 -14.73084753 0.0115644 3.93797269
C -5.22600795 5.32312855 0.00858513 3.93795684
C -5.2259131 3.90435863 0.007016 3.93797205
C -3.9971589 3.1950876 0.0058121 3.93797027
C -2.76851025 3.90448784 0.00517036 3.93795915
C -11.22304922 15.70436851 -0.0060868 3.93795879
C -11.22234197 14.28560906 -0.00400023 3.93797214
C -9.99335636 13.57670814 -0.00030741 3.93796191
C -8.76503254 14.2867463 0.00084927 3.93797196
C -8.76575444 15.70552179 -0.00251483 3.9379774
C -9.99475745 16.41434657 -0.00556496 3.93795149
C -9.99535027 17.84705204 -0.00747852 4.06201626
C -9.99510995 19.06586232 -0.00768381 4.06203582
C -7.52509756 16.42229565 -0.0031538 4.06204135
C -6.46997509 17.0324425 -0.00457892 4.06203099
C -7.52382741 13.57091538 0.00461727 4.06204296
C -6.46825253 12.96159585 0.00772343 4.06202857
C -5.22744149 12.24518147 0.00911689 3.93796186
C -5.22748808 10.82642224 0.01140301 3.93796781
C -3.99876653 10.11706849 0.01085329 3.93797067
C -2.77008672 10.82646821 0.00815333 3.937968
C -2.77013966 12.24522935 0.00603361 3.9379725
C -3.99881584 12.95461408 0.00638761 3.9379584
C -3.99910614 14.38741281 0.00266159 4.06202969
C -4.00080499 15.60618308 -0.00171618 4.06203605
C -1.52928347 12.96162339 0.00247007 4.06204309
C -0.47445385 13.57221388 -0.00107686 4.06203097
C -1.52912316 10.11021377 0.00648946 4.0620395
C -0.47322691 9.50144403 0.00411483 4.06202557
C 0.7677448 8.78530575 0.0029817 3.93796044
C 0.7679862 7.36656127 0.00200784 3.93797419
C 1.99670132 6.65726827 0.00119207 3.93795587
C 3.22524355 7.36684757 0.00251417 3.93796701
C 3.22498455 8.7856197 0.00390021 3.93798172
C 1.99624868 9.49488891 0.00342466 3.9379494
C 1.99583989 10.9276203 0.002905 4.06202918
C 1.99471073 12.14641105 0.00084952 4.06202947
C -11.22159163 8.78223286 -0.00405351 3.93795826
C -11.22085103 7.3635107 -0.00574419 3.93796393
C -9.99187359 6.65471665 -0.00162985 3.93796107
C -8.76355702 7.36464824 0.00404229 3.93796479
C -8.76426325 8.78338606 0.0056576 3.93796265
C -9.99327354 9.49218449 0.00155809 3.93797017
C -9.99376963 10.92502052 0.00221085 4.0620286
C -9.992806 12.14383825 0.00159702 4.06204152
C -7.52373537 9.50032159 0.00995842 4.06202846
C -6.46831888 10.10995362 0.01192508 4.06204172
C -7.52245628 6.64877071 0.00710877 4.06203019
C -6.46686557 6.03947613 0.00872795 4.06203118
C 4.46576852 9.50213686 0.00544215 4.06204542
C 5.52097635 10.11213445 0.00694269 4.06203669
C 4.46622746 6.65067202 0.00238336 4.06202853
C 5.52187557 6.04140768 0.00196201 4.06203703
C 10.46551142 -17.57548193 0.01455742 4.06202942
C 0.77210123 -11.98023929 -0.0006201 3.93796019
C 11.52117097 -14.11465039 0.01087154 4.06204235
C 0.77195253 -13.39896772 0.00391023 3.93796084
C 4.46715962 2.58025424 -0.00498648 4.06203235
C 5.52256278 3.18985497 -0.00382993 4.06203801
C 4.46774894 -0.27132518 -0.0071574 4.06203505
C 5.5233597 -0.88060732 -0.00833142 4.06203024
C 6.76438545 -1.5966759 -0.00838033 3.93795869
C 6.76476694 -3.01542774 -0.01015603 3.93796885
C 7.99362615 -3.72449314 -0.00927069 3.93796708
C 9.22216103 -3.01489422 -0.00559413 3.9379632
C 9.2217623 -1.59611853 -0.00423997 3.93797285
C 7.99289877 -0.88702749 -0.0060402 3.9379662
C 7.99259344 0.54576926 -0.00492082 4.06203227
C 7.99242868 1.76459527 -0.00427489 4.06203788
C 10.46242238 -0.87937583 -0.0008337 4.06204053
C 11.51811909 -0.27028818 0.00244019 4.06204226
C 10.46305015 -3.7312514 -0.00271231 4.06203389
C 11.51837664 -4.34101463 0.0007473 4.06202658
C 9.22471355 -15.44027726 0.01335788 3.93796962
C 9.22472703 -16.8590444 0.01500626 3.93795564
C 2.00053357 -14.1084768 0.00543312 3.93797189
C 3.22935652 -13.3993819 0.00271604 3.93795205
C 3.2294901 -11.98064681 -0.00256301 3.93796623
C 2.00090198 -11.27109388 -0.00432278 3.9379749
C 2.00098411 -9.83828562 -0.00875322 4.06203751
C 2.00047659 -8.61947434 -0.01157799 4.06203769
C 4.47034487 -11.26428202 -0.00571775 4.06202433
C 5.52564534 -10.65443646 -0.00836816 4.06204456
C 4.47020966 -14.11573563 0.00584375 4.06203429
C 5.52643705 -14.72392339 0.0094224 4.06202372
C -5.22300952 -8.52020599 -0.0020399 3.93796883
C -5.2234245 -9.93896225 0.00157689 3.9379579
C -3.99491988 -10.64864217 0.00253803 3.93797962
C -2.76601317 -9.93965483 -0.00086064 3.93795899
C 0.77047951 -5.05898153 -0.00950726 3.93796942
C 0.77094669 -6.47773377 -0.01058147 3.93796475
C 1.99988658 -7.18665983 -0.01250318 3.93796375
C 3.22831213 -6.47684283 -0.01395923 3.93796259
C 3.2277933 -5.05808923 -0.01266911 3.93796759
C 1.99888011 -4.34914428 -0.01018739 3.93796182
C 1.99844838 -2.91635258 -0.0080428 4.06203196
C 1.99838262 -1.69751516 -0.00574175 4.06203529
C 4.46842653 -4.34132472 -0.01283853 4.06203635
C 5.52411189 -3.73217099 -0.01208466 4.06203849
C 4.46938348 -7.19286599 -0.01537734 4.0620353
C 5.52469077 -7.80272049 -0.0155777 4.06203767
C 6.76573511 -8.51878126 -0.01322741 3.93797162
C 6.76624645 -9.9375567 -0.00942084 3.93796196
C 7.99527692 -10.6463736 -0.00478445 3.93796908
C 9.22369334 -9.93650164 -0.00453806 3.93796398
C 9.22313332 -8.51774992 -0.00825778 3.93796435
C 7.99415395 -7.80891414 -0.01238231 3.93797011
C 7.99369358 -6.37611908 -0.01336593 4.06203853
C 7.99395307 -5.15728259 -0.01127599 4.06203433
C 10.46367294 -7.80088037 -0.00590407 4.06203548
C 11.5196468 -7.19229609 -0.00226568 4.0620284
C 10.46470217 -10.65261895 0.00041923 4.0620334
C 11.51960727 -11.26308678 0.00469458 4.06203164
C 7.99600117 -17.56833993 0.01611092 3.93797108
C -2.76562862 -8.52092502 -0.00433069 3.93796047
C -3.99410025 -7.81120838 -0.00454594 3.93796726
C -3.99386332 -6.37839119 -0.00622295 4.06203679
C -3.99490913 -5.15956438 -0.00583383 4.06204031
C -1.52471429 -7.80470761 -0.00703533 4.06202715
C -0.46960428 -7.19460037 -0.00893127 4.06203346
C -1.52521507 -10.65609329 -0.00053789 4.06203142
C -0.4687366 -11.26386102 -0.00099547 4.06203187
C -11.21867497 -5.06109901 0.00368855 3.93796762
C -11.21839259 -6.47981595 0.00296325 3.93796139
C -9.98964395 -7.18902106 0.00089447 3.93796129
C -8.76109754 -6.47939456 -0.00041609 3.9379712
C -8.76130754 -5.060626 0.00039686 3.93795831
C -9.99013545 -4.35150898 0.00274816 3.93796975
C -9.99024596 -2.91869738 0.00351656 4.06204073
C -9.98943147 -1.69990053 0.00375714 4.06203926
C -7.52055294 -4.3439481 -0.00071835 4.06203182
C -6.46508616 -3.73437197 -0.00167295 4.06203717
C -7.51998908 -7.19538277 -0.00192863 4.06203693
C -6.46378177 -7.80359402 -0.00224864 4.06204291
C 6.76290711 5.325272 0.00117541 3.93795831
C 6.7632353 3.9065227 -0.00187783 3.93796419
C 7.99208765 3.19741621 -0.00239945 3.93797337
C 9.22065168 3.90701918 -0.00054054 3.93796619
C 9.22040653 5.32578947 0.00215822 3.93796643
C 7.99149542 6.03484224 0.00349953 3.93797492
C 7.99103062 7.46763392 0.00650949 4.0620311
C 7.99034953 8.68645085 0.00850455 4.06205252
C 10.46111507 6.0424195 0.00329115 4.06204456
C 11.5163905 6.65225217 0.00337753 4.06201833
C 10.46153955 3.19072415 -0.00070234 4.06203344
C 11.51693555 2.58107902 0.00020915 4.0620286
C 10.4654584 -14.72374214 0.01212931 4.06202634
C -3.99735463 6.03257717 0.00865347 3.9379671
C 11.52147995 -18.18411065 0.01320515 4.06202508
C 7.99593377 -12.0792028 0.00084451 4.0620341
C -2.76862884 5.32323892 0.00636944 3.93796939
H 19.98020922 8.46429155 3.39929903 None
H 19.98020922 8.46429155 2.69929903 None
H 6.65736438 16.15251685 3.40043171 None
H 6.65736438 16.15251685 2.70043171 None
H 3.99154678 23.84297099 3.40096555 None
H 3.99154678 23.84297099 2.70096555 None
H 17.31439163 16.15474569 3.39983287 None
H 17.31439163 16.15474569 2.69983287 None
H 22.64602682 0.77383741 3.39876519 None
H 22.64602682 0.77383741 2.69876519 None
H 3.99466835 8.4609483 3.40019729 None
H 3.99466835 8.4609483 2.70019729 None
H 3.99591698 2.30813922 3.39988999 None
H 3.99591698 2.30813922 2.69988999 None
H 3.99404404 11.53735283 3.40035094 None
H 3.99404404 11.53735283 2.70035094 None
H 22.64477819 6.92664649 3.39907249 None
H 22.64477819 6.92664649 2.69907249 None
H 3.99341972 14.61375737 3.4005046 None
H 3.99341972 14.61375737 2.7005046 None
H 1.32822644 19.22780697 3.40088478 None
H 1.32822644 19.22780697 2.70088478 None
H 22.64852408 -11.53178074 3.39815059 None
H 22.64852408 -11.53178074 2.69815059 None
H 14.65356854 -0.76603648 3.3991375 None
H 14.65356854 -0.76603648 2.6991375 None
H 14.65044697 14.61598621 3.39990575 None
H 14.65044697 14.61598621 2.69990575 None
H 1.32947507 13.07499789 3.40057748 None
H 1.32947507 13.07499789 2.70057748 None
H 9.32255766 11.53846725 3.40005152 None
H 9.32255766 11.53846725 2.70005152 None
H 11.98712663 10.00082219 3.39982499 None
H 11.98712663 10.00082219 2.69982499 None
H 22.64415388 10.00305103 3.39922614 None
H 22.64415388 10.00305103 2.69922614 None
H 11.98525369 19.23003581 3.40028594 None
H 11.98525369 19.23003581 2.70028594 None
H 14.65294423 2.31036805 3.39929115 None
H 14.65294423 2.31036805 2.69929115 None
H 19.97896059 14.61710063 3.39960633 None
H 19.97896059 14.61710063 2.69960633 None
H 1.3307237 6.92218882 3.40027018 None
H 1.3307237 6.92218882 2.70027018 None
H 6.66111026 -2.30591038 3.3995098 None
H 6.66111026 -2.30591038 2.6995098 None
H 6.65923732 6.92330324 3.39997076 None
H 6.65923732 6.92330324 2.69997076 None
H 9.32505492 -0.7671509 3.39943692 None
H 9.32505492 -0.7671509 2.69943692 None
H 22.64789976 -8.4553762 3.39830424 None
H 22.64789976 -8.4553762 2.69830424 None
H 19.98270648 -3.8413266 3.39868442 None
H 19.98270648 -3.8413266 2.69868442 None
H 1.33197233 0.76937974 3.39996288 None
H 1.33197233 0.76937974 2.69996288 None
H 19.98333079 -6.91773114 3.39853077 None
H 19.98333079 -6.91773114 2.69853077 None
H 22.64352956 13.07945557 3.39937979 None
H 22.64352956 13.07945557 2.69937979 None
H 17.31564025 10.00193661 3.39952556 None
H 17.31564025 10.00193661 2.69952556 None
H 3.9921711 20.76656645 3.4008119 None
H 3.9921711 20.76656645 2.7008119 None
H 14.65107129 11.53958167 3.3997521 None
H 14.65107129 11.53958167 2.6997521 None
H 6.66048595 0.77049416 3.39966346 None
H 6.66048595 0.77049416 2.69966346 None
H 9.32380629 5.38565818 3.39974422 None
H 9.32380629 5.38565818 2.69974422 None
H 6.65798869 13.07611231 3.40027806 None
H 6.65798869 13.07611231 2.70027806 None
H 11.985878 16.15363127 3.40013229 None
H 11.985878 16.15363127 2.70013229 None
H 19.98083354 5.38788701 3.39914538 None
H 19.98083354 5.38788701 2.69914538 None
H 17.31876183 -5.38008608 3.39875731 None
H 17.31876183 -5.38008608 2.69875731 None
H 22.64540251 3.85024195 3.39891884 None
H 22.64540251 3.85024195 2.69891884 None
H 6.65611575 22.30532593 3.40073901 None
H 6.65611575 22.30532593 2.70073901 None
H 11.9902482 -5.3812005 3.39905673 None
H 11.9902482 -5.3812005 2.69905673 None
H 11.98899957 0.77160858 3.39936403 None
H 11.98899957 0.77160858 2.69936403 None
H 3.99279541 17.69016191 3.40065825 None
H 3.99279541 17.69016191 2.70065825 None
H 11.98962389 -2.30479596 3.39921038 None
H 11.98962389 -2.30479596 2.69921038 None
H 19.98395511 -9.99413568 3.39837712 None
H 19.98395511 -9.99413568 2.69837712 None
H 17.31813751 -2.30368154 3.39891096 None
H 17.31813751 -2.30368154 2.69891096 None
H 9.32567923 -3.84355544 3.39928327 None
H 9.32567923 -3.84355544 2.69928327 None
H 9.32193335 14.61487179 3.40020517 None
H 9.32193335 14.61487179 2.70020517 None
H 17.3175132 0.77272299 3.39906461 None
H 17.3175132 0.77272299 2.69906461 None
H 9.32068472 20.76768087 3.40051248 None
H 9.32068472 20.76768087 2.70051248 None
H 22.64665113 -2.30256713 3.39861154 None
H 22.64665113 -2.30256713 2.69861154 None
H 3.99529267 5.38454376 3.40004364 None
H 3.99529267 5.38454376 2.70004364 None
H 11.98837526 3.84801311 3.39951768 None
H 11.98837526 3.84801311 2.69951768 None
H 9.3244306 2.30925364 3.39959057 None
H 9.3244306 2.30925364 2.69959057 None
H 9.32130903 17.69127633 3.40035882 None
H 9.32130903 17.69127633 2.70035882 None
H 9.32318198 8.46206271 3.39989787 None
H 9.32318198 8.46206271 2.69989787 None
H 6.65986164 3.8468987 3.39981711 None
H 6.65986164 3.8468987 2.69981711 None
H 17.31501594 13.07834115 3.39967922 None
H 17.31501594 13.07834115 2.69967922 None
H 19.98208217 -0.76492207 3.39883808 None
H 19.98208217 -0.76492207 2.69883808 None
H 19.97958491 11.54069609 3.39945268 None
H 19.97958491 11.54069609 2.69945268 None
H 14.6516956 8.46317713 3.39959845 None
H 14.6516956 8.46317713 2.69959845 None
H 17.31688888 3.84912753 3.39921826 None
H 17.31688888 3.84912753 2.69921826 None
H 11.98775095 6.92441765 3.39967134 None
H 11.98775095 6.92441765 2.69967134 None
H 6.65861301 9.99970777 3.40012441 None
H 6.65861301 9.99970777 2.70012441 None
H 14.65231991 5.38677259 3.3994448 None
H 14.65231991 5.38677259 2.6994448 None
H 17.31626457 6.92553207 3.39937191 None
H 17.31626457 6.92553207 2.69937191 None
H 14.64982266 17.69239075 3.4000594 None
H 14.64982266 17.69239075 2.7000594 None
H 17.31938614 -8.45649062 3.39860366 None
H 17.31938614 -8.45649062 2.69860366 None
H 19.98145785 2.31148247 3.39899173 None
H 19.98145785 2.31148247 2.69899173 None
H 1.33009938 9.99859336 3.40042383 None
H 1.33009938 9.99859336 2.70042383 None
H 1.32697781 25.38061605 3.40119208 None
H 1.32697781 25.38061605 2.70119208 None
H 3.9965413 -0.76826532 3.39973634 None
H 3.9965413 -0.76826532 2.69973634 None
H 14.65419286 -3.84244102 3.39898385 None
H 14.65419286 -3.84244102 2.69898385 None
H 1.32760213 22.30421151 3.40103843 None
H 1.32760213 22.30421151 2.70103843 None
H 6.65674006 19.22892139 3.40058536 None
H 6.65674006 19.22892139 2.70058536 None
H 22.64727545 -5.37897167 3.39845789 None
H 22.64727545 -5.37897167 2.69845789 None
H 1.32885076 16.15140243 3.40073113 None
H 1.32885076 16.15140243 2.70073113 None
H 11.98650232 13.07722673 3.39997864 None
H 11.98650232 13.07722673 2.69997864 None
H 14.65481717 -6.91884556 3.3988302 None
H 14.65481717 -6.91884556 2.6988302 None
H 1.33134801 3.84578428 3.40011653 None
H 1.33134801 3.84578428 2.70011653 None
H 11.98962389 -2.30479596 -2.70078962 None
H 11.98962389 -2.30479596 -3.40078962 None
H 1.33009938 9.99859336 -2.69957617 None
H 1.33009938 9.99859336 -3.39957617 None
H 1.32947507 13.07499789 -2.69942252 None
H 1.32947507 13.07499789 -3.39942252 None
H 19.98333079 -6.91773114 -2.70146923 None
H 19.98333079 -6.91773114 -3.40146923 None
H 14.65481717 -6.91884556 -2.7011698 None
H 14.65481717 -6.91884556 -3.4011698 None
H 14.65294423 2.31036805 -2.70070885 None
H 14.65294423 2.31036805 -3.40070885 None
H 1.32760213 22.30421151 -2.69896157 None
H 1.32760213 22.30421151 -3.39896157 None
H 1.33197233 0.76937974 -2.70003712 None
H 1.33197233 0.76937974 -3.40003712 None
H 14.65356854 -0.76603648 -2.7008625 None
H 14.65356854 -0.76603648 -3.4008625 None
H 1.32697781 25.38061605 -2.69880792 None
H 1.32697781 25.38061605 -3.39880792 None
H 17.3175132 0.77272299 -2.70093539 None
H 17.3175132 0.77272299 -3.40093539 None
H 6.65986164 3.8468987 -2.70018289 None
H 6.65986164 3.8468987 -3.40018289 None
H 1.3307237 6.92218882 -2.69972982 None
H 1.3307237 6.92218882 -3.39972982 None
H 11.98899957 0.77160858 -2.70063597 None
H 11.98899957 0.77160858 -3.40063597 None
H 17.31626457 6.92553207 -2.70062809 None
H 17.31626457 6.92553207 -3.40062809 None
H 3.9965413 -0.76826532 -2.70026366 None
H 3.9965413 -0.76826532 -3.40026366 None
H 11.98650232 13.07722673 -2.70002136 None
H 11.98650232 13.07722673 -3.40002136 None
H 9.32068472 20.76768087 -2.69948752 None
H 9.32068472 20.76768087 -3.39948752 None
H 19.97958491 11.54069609 -2.70054732 None
H 19.97958491 11.54069609 -3.40054732 None
H 9.32505492 -0.7671509 -2.70056308 None
H 9.32505492 -0.7671509 -3.40056308 None
H 3.99466835 8.4609483 -2.69980271 None
H 3.99466835 8.4609483 -3.39980271 None
H 9.32380629 5.38565818 -2.70025578 None
H 9.32380629 5.38565818 -3.40025578 None
H 6.65861301 9.99970777 -2.69987559 None
H 6.65861301 9.99970777 -3.39987559 None
H 3.99154678 23.84297099 -2.69903445 None
H 3.99154678 23.84297099 -3.39903445 None
H 14.65231991 5.38677259 -2.7005552 None
H 14.65231991 5.38677259 -3.4005552 None
H 3.99341972 14.61375737 -2.6994954 None
H 3.99341972 14.61375737 -3.3994954 None
H 9.32255766 11.53846725 -2.69994848 None
H 9.32255766 11.53846725 -3.39994848 None
H 11.9902482 -5.3812005 -2.70094327 None
H 11.9902482 -5.3812005 -3.40094327 None
H 3.9921711 20.76656645 -2.6991881 None
H 3.9921711 20.76656645 -3.3991881 None
H 22.64789976 -8.4553762 -2.70169576 None
H 22.64789976 -8.4553762 -3.40169576 None
H 17.31501594 13.07834115 -2.70032078 None
H 17.31501594 13.07834115 -3.40032078 None
H 22.64540251 3.85024195 -2.70108116 None
H 22.64540251 3.85024195 -3.40108116 None
H 3.99404404 11.53735283 -2.69964906 None
H 3.99404404 11.53735283 -3.39964906 None
H 11.98775095 6.92441765 -2.70032866 None
H 11.98775095 6.92441765 -3.40032866 None
H 14.65107129 11.53958167 -2.7002479 None
H 14.65107129 11.53958167 -3.4002479 None
H 19.98020922 8.46429155 -2.70070097 None
H 19.98020922 8.46429155 -3.40070097 None
H 6.66048595 0.77049416 -2.70033654 None
H 6.66048595 0.77049416 -3.40033654 None
H 6.65923732 6.92330324 -2.70002924 None
H 6.65923732 6.92330324 -3.40002924 None
H 19.98083354 5.38788701 -2.70085462 None
H 19.98083354 5.38788701 -3.40085462 None
H 19.98145785 2.31148247 -2.70100827 None
H 19.98145785 2.31148247 -3.40100827 None
H 6.65736438 16.15251685 -2.69956829 None
H 6.65736438 16.15251685 -3.39956829 None
H 22.64727545 -5.37897167 -2.70154211 None
H 22.64727545 -5.37897167 -3.40154211 None
H 19.98208217 -0.76492207 -2.70116192 None
H 19.98208217 -0.76492207 -3.40116192 None
H 17.31564025 10.00193661 -2.70047444 None
H 17.31564025 10.00193661 -3.40047444 None
H 22.64415388 10.00305103 -2.70077386 None
H 22.64415388 10.00305103 -3.40077386 None
H 1.32822644 19.22780697 -2.69911522 None
H 1.32822644 19.22780697 -3.39911522 None
H 22.64665113 -2.30256713 -2.70138846 None
H 22.64665113 -2.30256713 -3.40138846 None
H 1.32885076 16.15140243 -2.69926887 None
H 1.32885076 16.15140243 -3.39926887 None
H 14.65044697 14.61598621 -2.70009425 None
H 14.65044697 14.61598621 -3.40009425 None
H 22.64852408 -11.53178074 -2.70184941 None
H 22.64852408 -11.53178074 -3.40184941 None
H 1.33134801 3.84578428 -2.69988347 None
H 1.33134801 3.84578428 -3.39988347 None
H 9.32567923 -3.84355544 -2.70071673 None
H 9.32567923 -3.84355544 -3.40071673 None
H 19.97896059 14.61710063 -2.70039367 None
H 19.97896059 14.61710063 -3.40039367 None
H 11.98712663 10.00082219 -2.70017501 None
H 11.98712663 10.00082219 -3.40017501 None
H 14.64982266 17.69239075 -2.6999406 None
H 14.64982266 17.69239075 -3.3999406 None
H 9.32193335 14.61487179 -2.69979483 None
H 9.32193335 14.61487179 -3.39979483 None
H 6.66111026 -2.30591038 -2.7004902 None
H 6.66111026 -2.30591038 -3.4004902 None
H 6.65674006 19.22892139 -2.69941464 None
H 6.65674006 19.22892139 -3.39941464 None
H 17.31938614 -8.45649062 -2.70139634 None
H 17.31938614 -8.45649062 -3.40139634 None
H 19.98270648 -3.8413266 -2.70131558 None
H 19.98270648 -3.8413266 -3.40131558 None
H 9.3244306 2.30925364 -2.70040943 None
H 9.3244306 2.30925364 -3.40040943 None
H 9.32130903 17.69127633 -2.69964118 None
H 9.32130903 17.69127633 -3.39964118 None
H 17.31688888 3.84912753 -2.70078174 None
H 17.31688888 3.84912753 -3.40078174 None
H 19.98395511 -9.99413568 -2.70162288 None
H 19.98395511 -9.99413568 -3.40162288 None
H 17.31439163 16.15474569 -2.70016713 None
H 17.31439163 16.15474569 -3.40016713 None
H 11.98837526 3.84801311 -2.70048232 None
H 11.98837526 3.84801311 -3.40048232 None
H 14.65419286 -3.84244102 -2.70101615 None
H 14.65419286 -3.84244102 -3.40101615 None
H 22.64477819 6.92664649 -2.70092751 None
H 22.64477819 6.92664649 -3.40092751 None
H 22.64352956 13.07945557 -2.70062021 None
H 22.64352956 13.07945557 -3.40062021 None
H 14.6516956 8.46317713 -2.70040155 None
H 14.6516956 8.46317713 -3.40040155 None
H 6.65611575 22.30532593 -2.69926099 None
H 6.65611575 22.30532593 -3.39926099 None
H 22.64602682 0.77383741 -2.70123481 None
H 22.64602682 0.77383741 -3.40123481 None
H 9.32318198 8.46206271 -2.70010213 None
H 9.32318198 8.46206271 -3.40010213 None
H 17.31813751 -2.30368154 -2.70108904 None
H 17.31813751 -2.30368154 -3.40108904 None
H 11.985878 16.15363127 -2.69986771 None
H 11.985878 16.15363127 -3.39986771 None
H 3.99591698 2.30813922 -2.70011001 None
H 3.99591698 2.30813922 -3.40011001 None
H 6.65798869 13.07611231 -2.69972194 None
H 6.65798869 13.07611231 -3.39972194 None
H 3.99529267 5.38454376 -2.69995636 None
H 3.99529267 5.38454376 -3.39995636 None
H 11.98525369 19.23003581 -2.69971406 None
H 11.98525369 19.23003581 -3.39971406 None
H 3.99279541 17.69016191 -2.69934175 None
H 3.99279541 17.69016191 -3.39934175 None
H 17.31876183 -5.38008608 -2.70124269 None
H 17.31876183 -5.38008608 -3.40124269 None