12
frame
C -2.22146186 0.13430898 -0.0021515 3.93841956
C -2.22150085 -1.28264491 -0.00255513 3.93841794
C -0.99445612 -1.99121027 -0.00158024 3.93840611
C 0.23258647 -1.28265605 -0.00016371 3.9384218
C 0.23274398 0.13428057 0.00043109 3.9384059
C -0.99432598 0.84282958 -0.0005841 3.93841074
C -0.99418099 2.2599306 -0.00024554 4.06158418
C -0.99420744 3.48159318 0.00017885 4.06158701
C 1.45990838 0.84288189 0.00198685 4.06159959
C 2.51769452 1.45410906 0.00293901 4.06157378
C 1.45972137 -1.99114089 0.00060802 4.06157802
C 2.51747855 -2.60228174 0.00113638 4.06159538