32
frame
C -2.22146186 0.13430898 -0.0021515 3.93841956
C -2.22150085 -1.28264491 -0.00255513 3.93841794
C -0.99445612 -1.99121027 -0.00158024 3.93840611
C 0.23258647 -1.28265605 -0.00016371 3.9384218
C 0.23274398 0.13428057 0.00043109 3.9384059
C -0.99432598 0.84282958 -0.0005841 3.93841074
C -0.99418099 2.2599306 -0.00024554 4.06158418
C -0.99420744 3.48159318 0.00017885 4.06158701
C 1.45990838 0.84288189 0.00198685 4.06159959
C 2.51769452 1.45410906 0.00293901 4.06157378
C 1.45972137 -1.99114089 0.00060802 4.06157802
C 2.51747855 -2.60228174 0.00113638 4.06159538
H 2.98319774 1.72228921 3.40346463 None
H 2.98319774 1.72228921 2.70346463 None
H 0.99442218 2.87073446 3.40199908 None
H 0.99442218 2.87073446 2.70199908 None
H 2.9831748 -0.57434884 3.40262042 None
H 2.9831748 -0.57434884 2.70262042 None
H 4.97199623 2.87048202 3.4057744 None
H 4.97199623 2.87048202 2.7057744 None
H 0.99444512 5.16737251 3.40284329 None
H 0.99444512 5.16737251 2.70284329 None
H 4.97195036 -1.72279408 -2.69591402 None
H 4.97195036 -1.72279408 -3.39591402 None
H 0.99439925 0.5740964 -2.69884514 None
H 0.99439925 0.5740964 -3.39884514 None
H 2.9831748 -0.57434884 -2.69737958 None
H 2.9831748 -0.57434884 -3.39737958 None
H 0.99442218 2.87073446 -2.69800092 None
H 0.99442218 2.87073446 -3.39800092 None
H 2.98319774 1.72228921 -2.69653537 None
H 2.98319774 1.72228921 -3.39653537 None