472
frame
C -1.24167196 0.62016135 -0.35023249 3.94038359
C -1.15460196 -0.80278245 -0.27380749 3.94035279
C 0.10331804 -1.42842765 -0.02029149 3.94033333
C 1.27284804 -0.63063465 0.16349051 3.94036293
C 1.18644804 0.79216135 0.08403871 3.94034765
C -0.07035196 1.41755135 -0.17601949 3.94035077
C 0.19151804 -2.85401865 0.05180231 4.06805142
C 0.26853804 -4.08092865 0.10773191 3.99324958
C 0.35511804 -5.44696865 0.17202951 4.00264632
C 0.43387804 -6.68006865 0.22977451 4.00139228
C 0.52249804 -8.04207865 0.29533151 4.00663174
C 0.60326804 -9.27472865 0.35658951 3.99794262
C 0.69452804 -10.64050865 0.42342451 3.99943423
C 0.77661804 -11.86655865 0.48553551 4.06812173
C 0.87558804 -13.29245865 0.54912351 3.93189765
C 2.53000804 -1.25630965 0.43372551 4.06805305
C 3.60937804 -1.79312865 0.68071251 3.99326093
C 4.81132104 -2.38926865 0.95886451 4.00265025
C 5.89527104 -2.92539865 1.21879251 4.00139167
C 7.09265804 -3.51720865 1.50681251 4.00663538
C 8.17606804 -4.05193865 1.77118251 3.99794358
C 9.37632804 -4.64456865 2.06453251 3.99943668
C 10.45422804 -5.17596865 2.32794251 4.068118
C 11.70553804 -5.79568865 2.63948251 3.931884
C 2.35764804 1.59134135 0.27083151 4.06804833
C 3.36290804 2.28054135 0.44058051 3.99325575
C 4.48041004 3.04987135 0.63308151 4.00264343
C 5.48599204 3.74731135 0.81329551 4.00139469
C 6.59655804 4.51787135 1.01363251 4.00662519
C 7.59981804 5.21723135 1.19834251 3.99795331
C 8.71289804 5.99006135 1.40333251 3.99941557
C 9.71158804 6.68420135 1.58921251 4.06813713
C 10.87600804 7.48748135 1.80394251 3.93192147
C -2.32795196 -1.60171465 -0.44730449 4.06804667
C -3.33717196 -2.29094865 -0.59114649 3.99325939
C -4.46073196 -3.05928865 -0.74866249 4.00264604
C -5.47425196 -3.75472865 -0.88695049 4.00139389
C -6.59405196 -4.52310865 -1.03746749 4.00663094
C -7.60675196 -5.22034865 -1.17133749 3.99794506
C -8.73125196 -5.99003865 -1.31635749 3.99942868
C -9.74065196 -6.68175865 -1.44426749 4.06812901
C -10.91955196 -7.47939865 -1.58914749 3.93188658
C -2.50340196 1.24655135 -0.59661049 4.06805122
C -3.59176196 1.78401135 -0.79879449 3.99326163
C -4.80387196 2.38320135 -1.02068749 4.00265611
C -5.89895196 2.92468135 -1.21466749 4.00139022
C -7.10945196 3.52205135 -1.42613749 4.0066384
C -8.20585196 4.06283135 -1.61360749 3.99794238
C -9.42165196 4.66069135 -1.81917749 3.99944719
C -10.51345196 5.19752135 -2.00219749 4.06809952
C -11.78485196 5.81952135 -2.21063749 3.93185938
C -0.15597196 2.84272135 -0.25924249 4.06805101
C -0.22576196 4.06903135 -0.33452449 3.99325025
C -0.30544196 5.43437135 -0.41992249 4.00264345
C -0.37657196 6.66680135 -0.49850149 4.00139811
C -0.45817196 8.02765135 -0.59188549 4.00662152
C -0.53352196 9.25904135 -0.67967349 3.99795193
C -0.61893196 10.62244135 -0.78922749 3.9994071
C -0.69761196 11.84594135 -0.89256849 4.0681508
C -0.78640196 13.26724135 -1.03149749 3.93190203
C -0.28332196 -14.10555865 0.35204851 3.9077027
C -0.16433196 -15.51135865 0.41096751 4.09673406
C 1.07432804 -16.10865865 0.66212951 4.07169393
C 2.21486804 -15.32545865 0.86160751 4.0967114
C 2.13481804 -13.91665865 0.80943651 3.90770487
C -10.83965196 -8.90488865 -1.52247749 3.90773034
C -12.01505196 -9.67429865 -1.66497749 4.09672385
C -13.24985196 -9.05196865 -1.86991749 4.07169061
C -13.34245196 -7.65880865 -1.93772749 4.09674292
C -12.18875196 -6.85655865 -1.79963749 3.9076821
C 12.86637804 -4.99675865 2.87834251 3.90771286
C 14.09147804 -5.62638865 3.18907251 4.09672049
C 14.17428804 -7.01985865 3.26280251 4.0716987
C 13.04740804 -7.81341865 3.02928251 4.09674296
C 11.80516804 -7.21949865 2.71649251 3.90769288
C -11.88705196 7.24291135 -2.29087749 3.90771242
C -12.96425196 5.02250135 -2.34027749 3.90768966
C -14.21115196 5.65382135 -2.54128749 4.09676295
C -14.29695196 7.04712135 -2.61531749 4.07168326
C -13.15125196 7.83861135 -2.49302749 4.09677695
C 10.79932804 8.91120135 1.70350251 3.9077384
C 11.95987804 9.68684135 1.91682251 4.09670337
C 13.17707804 9.07241135 2.22482251 4.07168748
C 13.26623804 7.68116135 2.32734251 4.09671257
C 12.12714804 6.87280135 2.12021251 3.9076971
C -2.04265196 13.88694135 -1.31579749 3.90771788
C -2.10837196 15.28984135 -1.46253749 4.09669379
C -0.95751196 16.07184135 -1.32905749 4.07166802
C 0.27656804 15.47964135 -1.04554749 4.09673656
C 0.38129804 14.07984135 -0.89260349 3.90771085
H -1.04652196 -16.13225865 0.25972251 0.91056485
H -14.31025196 -7.18525865 -2.09766749 0.91053301
H -11.95565196 -10.76078865 -1.61379749 0.9105648
H 13.12466804 -8.89836865 3.08874251 0.91055516
H 1.15123804 -17.19495865 0.70420351 0.91696127
H 3.17412804 -15.80215865 1.05947251 0.910548
C -1.55856196 -13.49655865 0.10054461 4.07572521
H 14.97674804 -5.01859865 3.37224251 0.91056484
H 15.12634804 -7.49191865 3.50453251 0.91697324
H 1.16611804 16.09974135 -0.94149649 0.91055316
H 11.90252804 10.77184135 1.83981251 0.91053943
H 14.06474804 9.68364135 2.38640251 0.91695151
H -13.23065196 8.92330135 -2.55412749 0.91055765
H -15.11085196 5.04765135 -2.63954749 0.91054475
H -14.14885196 -9.65852865 -1.97750749 0.91697514
H -15.26605196 7.52071135 -2.77098749 0.91698879
H -3.06482196 15.76284135 -1.68159749 0.91055043
H -1.02328196 17.15344135 -1.44575749 0.9169746
C -12.28835196 -5.42629865 -1.86846749 4.07573216
C -12.36565196 -4.20036865 -1.92469749 4.00195468
C -12.45205196 -2.83178865 -1.98638749 4.00179842
C -12.52755196 -1.59875865 -2.03943749 4.0063178
C -12.61595196 -0.23462565 -2.09932749 4.0063161
C -12.70035196 0.99784135 -2.15216749 4.00180007
C -12.79285196 2.36602135 -2.21403749 4.00190536
C -12.87885196 3.59142135 -2.26930749 4.07577191
C -10.71185196 8.05807135 -2.16975749 4.07577188
C -9.69665196 8.74507135 -2.07190749 4.00191644
C -8.56285196 9.51114135 -1.96287749 4.00179939
C -5.38165196 11.64354135 -1.66494749 4.00178665
C -4.24664196 12.40724135 -1.55116749 4.00202634
C -3.22892196 13.08964135 -1.44814749 4.07566732
C -7.53755196 10.19584135 -1.86900749 4.00631039
C -6.40515196 10.95644135 -1.76134749 4.0063458
C 1.64955804 13.47624135 -0.59697649 4.07573113
C 2.73029804 12.95194135 -0.33407949 4.00197475
C 3.93441804 12.36294135 -0.03843679 4.00179794
C 5.01481594 11.82734135 0.23487151 4.00632556
C 6.20993804 11.23324135 0.53660451 4.00634872
C 8.48377804 10.09234135 1.11589251 4.00205786
C 9.55225804 9.54774135 1.38752251 4.07565197
C 7.28809804 10.69434135 0.81232451 4.00178351
C 12.22441804 5.44453135 2.22515251 4.07569803
C 12.30313804 4.22051135 2.31264251 4.00199773
C 12.38941804 2.85372135 2.40679251 4.00178804
C 12.46555804 1.62230135 2.48891251 4.00633831
C 12.55075804 0.25938135 2.57607251 4.00632336
C 12.62927804 -0.97225265 2.65257251 4.00180429
C 12.71326804 -2.34006865 2.73285251 4.00198373
C 12.78652804 -3.56558865 2.80216251 4.07570826
C 10.64987804 -8.03745865 2.47836251 4.07576809
C 9.65379804 -8.72872865 2.27331251 4.00191996
C 8.54151804 -9.50052865 2.04629251 4.00180454
C 7.53720804 -10.19226865 1.84186251 4.00631557
C 6.42698804 -10.96085865 1.62027251 4.00633567
C 5.42407604 -11.65635865 1.42187251 4.00178705
C 4.30857004 -12.42735865 1.20846251 4.00199415
C 3.30794804 -13.11675865 1.01985251 4.07570405
C -9.57385196 -9.54799865 -1.31085749 4.07573248
C -8.48655196 -10.09249865 -1.12840749 4.0019681
C -7.27135196 -10.69675865 -0.92205149 4.00179479
C -6.17495196 -11.23695865 -0.73498649 4.00633165
C -4.96228196 -11.83425865 -0.52257649 4.00631843
C -3.86704196 -12.37425865 -0.32835749 4.00179954
C -2.64985196 -12.96795865 -0.10392449 4.00197811
H 14.22023804 7.21384135 2.56838251 0.91055665
H 3.05313791 3.54938844 3.83804218 None
H 3.05313791 3.54938844 3.13804218 None
H 1.67162754 1.1565423 3.68888198 None
H 1.67162754 1.1565423 2.98888198 None
H 5.81615863 8.33508073 4.08857251 None
H 5.81615863 8.33508073 3.38857251 None
H 4.43464827 5.94223459 3.97219795 None
H 4.43464827 5.94223459 3.27219795 None
H 9.96068973 5.94223459 5.12869594 None
H 9.96068973 5.94223459 4.42869594 None
H 7.197669 10.72792687 4.18438904 None
H 7.197669 10.72792687 3.48438904 None
H 4.43464827 1.1565423 4.22890112 None
H 4.43464827 1.1565423 3.52890112 None
H 12.72371046 1.1565423 6.00229343 None
H 12.72371046 1.1565423 5.30229343 None
H 8.57917936 8.33508073 4.66679554 None
H 8.57917936 8.33508073 3.96679554 None
H 8.57917936 3.54938844 4.96896704 None
H 8.57917936 3.54938844 4.26896704 None
H 9.96068973 1.1565423 5.38539911 None
H 9.96068973 1.1565423 4.68539911 None
H 11.34220009 3.54938844 5.57291899 None
H 11.34220009 3.54938844 4.87291899 None
H 7.197669 5.94223459 4.53763442 None
H 7.197669 5.94223459 3.83763442 None
H 7.197669 1.1565423 4.79433759 None
H 7.197669 1.1565423 4.09433759 None
H -2.92880197 6.81163535 2.53253481 None
H -2.92880197 6.81163535 1.83253481 None
H 3.97874985 9.20448149 3.65239222 None
H 3.97874985 9.20448149 2.95239222 None
H -5.6918227 11.59732764 1.68604776 None
H -5.6918227 11.59732764 0.98604776 None
H -0.16578124 11.59732764 2.65750445 None
H -0.16578124 11.59732764 1.95750445 None
H -1.54729161 4.41878921 2.92595702 None
H -1.54729161 4.41878921 2.22595702 None
H 5.36026021 11.59732764 3.72924689 None
H 5.36026021 11.59732764 3.02924689 None
H -2.92880197 11.59732764 2.15934425 None
H -2.92880197 11.59732764 1.45934425 None
H 1.21572912 4.41878921 3.43662697 None
H 1.21572912 4.41878921 2.73662697 None
H 2.59723949 11.59732764 3.18073608 None
H 2.59723949 11.59732764 2.48073608 None
H 1.21572912 9.20448149 3.11654696 None
H 1.21572912 9.20448149 2.41654696 None
H 2.59723949 6.81163535 3.55392664 None
H 2.59723949 6.81163535 2.85392664 None
H -0.16578124 6.81163535 3.03069501 None
H -0.16578124 6.81163535 2.33069501 None
H -4.31031234 9.20448149 2.12017464 None
H -4.31031234 9.20448149 1.42017464 None
H -8.74496061 8.04793919 1.47904467 None
H -8.74496061 8.04793919 0.77904467 None
H -7.36345024 5.65509305 1.85911952 None
H -7.36345024 5.65509305 1.15911952 None
H -10.12647097 0.86940077 1.67691865 None
H -10.12647097 0.86940077 0.97691865 None
H -10.12647097 5.65509305 1.42529499 None
H -10.12647097 5.65509305 0.72529499 None
H -7.36345024 10.44078533 1.51229897 None
H -7.36345024 10.44078533 0.81229897 None
H -5.98193988 8.04793919 1.92510838 None
H -5.98193988 8.04793919 1.22510838 None
H -1.83740878 0.86940077 3.05219083 None
H -1.83740878 0.86940077 2.35219083 None
H -7.36345024 0.86940077 2.11074318 None
H -7.36345024 0.86940077 1.41074318 None
H -4.60042951 5.65509305 2.31747433 None
H -4.60042951 5.65509305 1.61747433 None
H -8.74496061 3.26224691 1.77546401 None
H -8.74496061 3.26224691 1.07546401 None
H -4.60042951 0.86940077 2.56909799 None
H -4.60042951 0.86940077 1.86909799 None
H -12.8894917 0.86940077 1.26741666 None
H -12.8894917 0.86940077 0.56741666 None
H -11.50798134 3.26224691 1.35382672 None
H -11.50798134 3.26224691 0.65382672 None
H -7.197669 -1.1565423 2.22084783 None
H -7.197669 -1.1565423 1.52084783 None
H -12.72371046 -1.1565423 1.37460186 None
H -12.72371046 -1.1565423 0.67460186 None
H -3.05313791 -3.54938844 3.00377316 None
H -3.05313791 -3.54938844 2.30377316 None
H -4.43464827 -1.1565423 2.68068107 None
H -4.43464827 -1.1565423 1.98068107 None
H -8.57917936 -8.33508073 2.21561786 None
H -8.57917936 -8.33508073 1.51561786 None
H -8.57917936 -3.54938844 2.08405475 None
H -8.57917936 -3.54938844 1.38405475 None
H -1.67162754 -1.1565423 3.16526479 None
H -1.67162754 -1.1565423 2.46526479 None
H -7.197669 -5.94223459 2.37564398 None
H -7.197669 -5.94223459 1.67564398 None
H -5.81615863 -3.54938844 2.53159064 None
H -5.81615863 -3.54938844 1.83159064 None
H -5.81615863 -8.33508073 2.66315376 None
H -5.81615863 -8.33508073 1.96315376 None
H -4.43464827 -5.94223459 2.83547721 None
H -4.43464827 -5.94223459 2.13547721 None
H -7.197669 -10.72792687 2.4895796 None
H -7.197669 -10.72792687 1.7895796 None
H -9.96068973 -1.1565423 1.78555734 None
H -9.96068973 -1.1565423 1.08555734 None
H -3.97874985 -9.20448149 2.99445869 None
H -3.97874985 -9.20448149 2.29445869 None
H 1.54729161 -9.20448149 3.99682623 None
H 1.54729161 -9.20448149 3.29682623 None
H 0.16578124 -11.59732764 3.78811182 None
H 0.16578124 -11.59732764 3.08811182 None
H 5.6918227 -11.59732764 4.86592425 None
H 5.6918227 -11.59732764 4.16592425 None
H 2.92880197 -11.59732764 4.31436598 None
H 2.92880197 -11.59732764 3.61436598 None
H 0.16578124 -6.81163535 3.67919251 None
H 0.16578124 -6.81163535 2.97919251 None
H 4.31031234 -9.20448149 4.53570648 None
H 4.31031234 -9.20448149 3.83570648 None
H 2.92880197 -6.81163535 4.20544667 None
H 2.92880197 -6.81163535 3.50544667 None
H 1.54729161 -4.41878921 3.87231611 None
H 1.54729161 -4.41878921 3.17231611 None
H -2.59723949 -6.81163535 3.17803471 None
H -2.59723949 -6.81163535 2.47803471 None
H -2.59723949 -11.59732764 3.28695402 None
H -2.59723949 -11.59732764 2.58695402 None
H -5.36026021 -11.59732764 2.81068485 None
H -5.36026021 -11.59732764 2.11068485 None
H -1.21572912 -4.41878921 3.35863609 None
H -1.21572912 -4.41878921 2.65863609 None
H 4.60042951 -5.65509305 4.50511148 None
H 4.60042951 -5.65509305 3.80511148 None
H 7.36345024 -10.44078533 5.18783454 None
H 7.36345024 -10.44078533 4.48783454 None
H 4.60042951 -0.86940077 4.34715067 None
H 4.60042951 -0.86940077 3.64715067 None
H 8.74496061 -3.26224691 5.29286144 None
H 8.74496061 -3.26224691 4.59286144 None
H 8.74496061 -8.04793919 5.42691655 None
H 8.74496061 -8.04793919 4.72691655 None
H 10.12647097 -0.86940077 5.50672442 None
H 10.12647097 -0.86940077 4.80672442 None
H 12.8894917 -0.86940077 6.12517531 None
H 12.8894917 -0.86940077 5.42517531 None
H 5.98193988 -3.26224691 4.71310054 None
H 5.98193988 -3.26224691 4.01310054 None
H 10.12647097 -5.65509305 5.66468522 None
H 10.12647097 -5.65509305 4.96468522 None
H 3.21891915 -3.26224691 4.15887329 None
H 3.21891915 -3.26224691 3.45887329 None
H 7.36345024 -0.86940077 4.91411879 None
H 7.36345024 -0.86940077 4.21411879 None
H 5.98193988 -8.04793919 4.84715565 None
H 5.98193988 -8.04793919 4.14715565 None
H 11.50798134 -3.26224691 5.89836374 None
H 11.50798134 -3.26224691 5.19836374 None
H 4.43464827 5.94223459 -2.12780205 None
H 4.43464827 5.94223459 -2.82780205 None
H 11.34220009 3.54938844 -0.52708101 None
H 11.34220009 3.54938844 -1.22708101 None
H 9.96068973 1.1565423 -0.71460089 None
H 9.96068973 1.1565423 -1.41460089 None
H 8.57917936 8.33508073 -1.43320446 None
H 8.57917936 8.33508073 -2.13320446 None
H 7.197669 5.94223459 -1.56236558 None
H 7.197669 5.94223459 -2.26236558 None
H 8.57917936 3.54938844 -1.13103296 None
H 8.57917936 3.54938844 -1.83103296 None
H 7.197669 10.72792687 -1.91561096 None
H 7.197669 10.72792687 -2.61561096 None
H 12.72371046 1.1565423 -0.09770657 None
H 12.72371046 1.1565423 -0.79770657 None
H 5.81615863 3.54938844 -1.70925598 None
H 5.81615863 3.54938844 -2.40925598 None
H 1.67162754 1.1565423 -2.41111802 None
H 1.67162754 1.1565423 -3.11111802 None
H 4.43464827 1.1565423 -1.87109888 None
H 4.43464827 1.1565423 -2.57109888 None
H 9.96068973 5.94223459 -0.97130406 None
H 9.96068973 5.94223459 -1.67130406 None
H 7.197669 1.1565423 -1.30566241 None
H 7.197669 1.1565423 -2.00566241 None
H 3.05313791 3.54938844 -2.26195782 None
H 3.05313791 3.54938844 -2.96195782 None
H 2.59723949 6.81163535 -2.54607336 None
H 2.59723949 6.81163535 -3.24607336 None
H 2.59723949 11.59732764 -2.91926392 None
H 2.59723949 11.59732764 -3.61926392 None
H -0.16578124 11.59732764 -3.44249555 None
H -0.16578124 11.59732764 -4.14249555 None
H -0.16578124 6.81163535 -3.06930499 None
H -0.16578124 6.81163535 -3.76930499 None
H 5.36026021 11.59732764 -2.37075311 None
H 5.36026021 11.59732764 -3.07075311 None
H -2.92880197 11.59732764 -3.94065575 None
H -2.92880197 11.59732764 -4.64065575 None
H -5.6918227 11.59732764 -4.41395224 None
H -5.6918227 11.59732764 -5.11395224 None
H 1.21572912 9.20448149 -2.98345304 None
H 1.21572912 9.20448149 -3.68345304 None
H -1.54729161 9.20448149 -3.49412298 None
H -1.54729161 9.20448149 -4.19412298 None
H -0.16578124 2.02594307 -2.79673 None
H -0.16578124 2.02594307 -3.49673 None
H -2.92880197 6.81163535 -3.56746519 None
H -2.92880197 6.81163535 -4.26746519 None
H -1.54729161 4.41878921 -3.17404298 None
H -1.54729161 4.41878921 -3.87404298 None
H 1.21572912 4.41878921 -2.66337303 None
H 1.21572912 4.41878921 -3.36337303 None
H -4.60042951 5.65509305 -3.78252567 None
H -4.60042951 5.65509305 -4.48252567 None
H -8.74496061 8.04793919 -4.62095533 None
H -8.74496061 8.04793919 -5.32095533 None
H -12.8894917 0.86940077 -4.83258334 None
H -12.8894917 0.86940077 -5.53258334 None
H -7.36345024 5.65509305 -4.24088048 None
H -7.36345024 5.65509305 -4.94088048 None
H -11.50798134 3.26224691 -4.74617328 None
H -11.50798134 3.26224691 -5.44617328 None
H -10.12647097 5.65509305 -4.67470501 None
H -10.12647097 5.65509305 -5.37470501 None
H -7.36345024 0.86940077 -3.98925682 None
H -7.36345024 0.86940077 -4.68925682 None
H -1.83740878 0.86940077 -3.04780917 None
H -1.83740878 0.86940077 -3.74780917 None
H -7.36345024 10.44078533 -4.58770103 None
H -7.36345024 10.44078533 -5.28770103 None
H -8.74496061 3.26224691 -4.32453599 None
H -8.74496061 3.26224691 -5.02453599 None
H -4.60042951 0.86940077 -3.53090201 None
H -4.60042951 0.86940077 -4.23090201 None
H -3.21891915 3.26224691 -3.40777443 None
H -3.21891915 3.26224691 -4.10777443 None
H -10.12647097 0.86940077 -4.42308135 None
H -10.12647097 0.86940077 -5.12308135 None
H -11.34220009 -3.54938844 -4.43904227 None
H -11.34220009 -3.54938844 -5.13904227 None
H -3.05313791 -3.54938844 -3.09622684 None
H -3.05313791 -3.54938844 -3.79622684 None
H -9.96068973 -1.1565423 -4.31444266 None
H -9.96068973 -1.1565423 -5.01444266 None
H -7.197669 -1.1565423 -3.87915217 None
H -7.197669 -1.1565423 -4.57915217 None
H -5.81615863 -3.54938844 -3.56840936 None
H -5.81615863 -3.54938844 -4.26840936 None
H -1.67162754 -1.1565423 -2.93473521 None
H -1.67162754 -1.1565423 -3.63473521 None
H -9.96068973 -5.94223459 -4.15964651 None
H -9.96068973 -5.94223459 -4.85964651 None
H -4.43464827 -1.1565423 -3.41931893 None
H -4.43464827 -1.1565423 -4.11931893 None
H -5.81615863 -8.33508073 -3.43684624 None
H -5.81615863 -8.33508073 -4.13684624 None
H -12.72371046 -1.1565423 -4.72539814 None
H -12.72371046 -1.1565423 -5.42539814 None
H -7.197669 -10.72792687 -3.6104204 None
H -7.197669 -10.72792687 -4.3104204 None
H -7.197669 -5.94223459 -3.72435602 None
H -7.197669 -5.94223459 -4.42435602 None
H -4.43464827 -5.94223459 -3.26452279 None
H -4.43464827 -5.94223459 -3.96452279 None
H 2.92880197 -6.81163535 -1.89455333 None
H 2.92880197 -6.81163535 -2.59455333 None
H 0.16578124 -6.81163535 -2.42080749 None
H 0.16578124 -6.81163535 -3.12080749 None
H 0.16578124 -11.59732764 -2.31188818 None
H 0.16578124 -11.59732764 -3.01188818 None
H -3.97874985 -9.20448149 -3.10554131 None
H -3.97874985 -9.20448149 -3.80554131 None
H 2.92880197 -11.59732764 -1.78563402 None
H 2.92880197 -11.59732764 -2.48563402 None
H 0.16578124 -2.02594307 -2.56651396 None
H 0.16578124 -2.02594307 -3.26651396 None
H 1.54729161 -4.41878921 -2.22768389 None
H 1.54729161 -4.41878921 -2.92768389 None
H -2.59723949 -11.59732764 -2.81304598 None
H -2.59723949 -11.59732764 -3.51304598 None
H -1.21572912 -4.41878921 -2.74136391 None
H -1.21572912 -4.41878921 -3.44136391 None
H -1.21572912 -9.20448149 -2.61685379 None
H -1.21572912 -9.20448149 -3.31685379 None
H 1.54729161 -9.20448149 -2.10317377 None
H 1.54729161 -9.20448149 -2.80317377 None
H -2.59723949 -6.81163535 -2.92196529 None
H -2.59723949 -6.81163535 -3.62196529 None
H 4.31031234 -9.20448149 -1.56429352 None
H 4.31031234 -9.20448149 -2.26429352 None
H 7.36345024 -0.86940077 -1.18588121 None
H 7.36345024 -0.86940077 -1.88588121 None
H 7.36345024 -10.44078533 -0.91216546 None
H 7.36345024 -10.44078533 -1.61216546 None
H 10.12647097 -0.86940077 -0.59327558 None
H 10.12647097 -0.86940077 -1.29327558 None
H 4.60042951 -5.65509305 -1.59488852 None
H 4.60042951 -5.65509305 -2.29488852 None
H 5.98193988 -3.26224691 -1.38689946 None
H 5.98193988 -3.26224691 -2.08689946 None
H 8.74496061 -8.04793919 -0.67308345 None
H 8.74496061 -8.04793919 -1.37308345 None
H 3.21891915 -3.26224691 -1.94112671 None
H 3.21891915 -3.26224691 -2.64112671 None
H 8.74496061 -3.26224691 -0.80713856 None
H 8.74496061 -3.26224691 -1.50713856 None
H 4.60042951 -0.86940077 -1.75284933 None
H 4.60042951 -0.86940077 -2.45284933 None
H 1.83740878 -0.86940077 -2.29438765 None
H 1.83740878 -0.86940077 -2.99438765 None
H 12.8894917 -0.86940077 0.02517531 None
H 12.8894917 -0.86940077 -0.67482469 None
H 10.12647097 -5.65509305 -0.43531478 None
H 10.12647097 -5.65509305 -1.13531478 None
H 5.98193988 -8.04793919 -1.25284435 None
H 5.98193988 -8.04793919 -1.95284435 None