684
frame
C -1.26573597 0.68654958 -0.29833147 3.94038923
C -1.22047697 -0.74058042 -0.30129047 3.94030067
C 0.03670003 -1.41498042 -0.35851047 3.94027543
C 1.24869903 -0.66212042 -0.40857147 3.94030949
C 1.20360903 0.76490958 -0.40400747 3.94029085
C -0.05374497 1.43943958 -0.35056147 3.94033466
C 0.08192803 -2.84461642 -0.35956047 4.06731444
C 0.11874203 -4.07495842 -0.36006547 3.99318975
C 0.15829903 -5.44420042 -0.36618747 4.00133018
C 0.19076603 -6.68171042 -0.37491147 4.00161985
C 0.22713503 -8.04582042 -0.39437147 4.00431948
C 0.25774103 -9.28491042 -0.41773947 3.99971527
C 0.29435803 -10.64863042 -0.45729747 4.00712662
C 0.32602703 -11.88524042 -0.50072247 3.99675138
C 0.36847903 -13.25311042 -0.56724247 3.99974683
C 0.40724203 -14.48125042 -0.63473247 4.06716769
C 0.46338903 -15.90735042 -0.74028647 3.93207464
C -2.43339097 -1.49586042 -0.23656747 4.06732486
C -3.47219097 -2.15237042 -0.16635647 3.99318943
C -4.62869097 -2.88170342 -0.08325647 4.00133744
C -5.67087097 -3.54441142 0.00157453 4.00161459
C -6.82171097 -4.27150842 0.09796853 4.00432675
C -7.86651097 -4.93234042 0.19008023 3.9997098
C -9.01938097 -5.65511042 0.29521153 4.00714221
C -10.06596097 -6.30873042 0.39254253 3.99672648
C -11.22672097 -7.02738042 0.50785253 3.99978049
C -12.27082097 -7.67022042 0.61343053 4.06713918
C -13.48522097 -8.41466042 0.75089553 3.93210428
C 2.50862903 -1.33760042 -0.45093747 4.06731997
C 3.59323903 -1.91907042 -0.47229947 3.99319358
C 4.80130903 -2.56446042 -0.48317047 4.00134359
C 5.89438903 -3.14543242 -0.47725247 4.00160701
C 7.09909903 -3.78602742 -0.45554447 4.00433962
C 8.19422903 -4.36579742 -0.42041147 3.99969597
C 9.39707903 -5.00814042 -0.36691647 4.00715578
C 10.48707903 -5.59132042 -0.30526047 3.99672085
C 11.68907903 -6.24343042 -0.22257647 3.99978909
C 12.76657903 -6.83189042 -0.13885447 4.06711417
C 14.01517903 -7.52151042 -0.02457647 3.93205071
C 2.41884903 1.51834958 -0.43952247 4.06733788
C 3.46608903 2.16504958 -0.45072447 3.9931765
C 4.63145903 2.88487958 -0.45041747 4.0013562
C 5.68507903 3.53449958 -0.43073447 4.001594
C 6.84644903 4.25039958 -0.39854047 4.0043489
C 7.90152903 4.89960958 -0.35268547 3.99968967
C 9.06207903 5.61559958 -0.29797047 4.00715792
C 10.11377903 6.26537958 -0.23744647 3.99670504
C 11.27697903 6.98654958 -0.17394247 3.99981458
C 12.32057903 7.63594958 -0.11235747 4.06709792
C 13.53477903 8.39084958 -0.05358647 3.93208128
C -0.09681197 2.86911958 -0.33816047 4.06733299
C -0.12328797 4.09957958 -0.31749647 3.9931776
C -0.15618697 5.46872958 -0.28812447 4.00134687
C -0.18247797 6.70594958 -0.25247947 4.00161979
C -0.21669297 8.06954958 -0.20794147 4.00432599
C -0.24901897 9.30784958 -0.16031047 3.99969868
C -0.29079097 10.67084958 -0.10360047 4.00715098
C -0.33333997 11.90654958 -0.04616247 3.99672872
C -0.38458897 13.27424958 0.01921353 3.99978103
C -0.43592917 14.50214958 0.08218723 4.06712306
C -0.49228004 15.93054958 0.15077853 3.93207362
C -2.52545097 1.36076958 -0.23334947 4.06731609
C -3.61224097 1.93484958 -0.16750147 3.99320609
C -4.82049097 2.57549958 -0.09027947 4.00133619
C -5.91293097 3.15260958 -0.01287847 4.00162469
C -7.11539097 3.79190958 0.07492473 4.00433368
C -8.20647097 4.37417958 0.16005823 3.9997123
C -9.40651097 5.01731958 0.25359353 4.00714713
C -10.49362097 5.60258958 0.34053753 3.99671872
C -11.69612097 6.25220958 0.43613753 3.99981675
C -12.77472097 6.83834958 0.52317053 4.06708866
C -14.03012097 7.51784958 0.62220353 3.93206589
C -13.46032097 -9.84372042 0.74811153 3.90785931
C -14.66792097 -10.56073042 0.89462453 4.09631287
C -15.88182097 -9.88341042 1.04144253 4.07125713
C -15.92152097 -8.48620042 1.04236053 4.09629524
C -14.73432097 -7.73555042 0.89686653 3.90784727
C 1.72427903 -16.57195042 -0.84777947 3.90780654
C -0.73912297 -16.67985042 -0.74668847 3.90788064
C -0.66282697 -18.08445042 -0.87020947 4.09632983
C 0.57684903 -18.72055042 -0.98224147 4.07127625
C 1.76121903 -17.97825042 -0.96946147 4.09631152
C 14.05147903 -8.95031042 -0.02352447 3.90782544
C 15.29137903 -9.61426042 0.10188063 4.09633648
C 16.47757903 -8.88481042 0.22294253 4.07126419
C 16.45727903 -7.48712042 0.21971063 4.09636955
C 15.23627903 -6.78868042 0.09643893 3.90786032
C -1.75312097 16.60154958 0.20148593 3.90784444
C -1.78843097 18.01174958 0.26515753 4.09630527
C -0.60237297 18.75124958 0.27990253 4.07127857
C 0.63787903 18.10804958 0.23361653 4.09638285
C 0.71245903 16.69954958 0.16944313 3.90781246
C -14.07962097 8.94624958 0.61914353 3.90785325
C -15.32802097 9.59904958 0.71620153 4.0963619
C -16.50972097 8.85894958 0.81574953 4.07126946
C -16.47602097 7.46154958 0.82163053 4.09636257
C -15.24632097 6.77414958 0.72627753 3.90784114
C 13.49557903 9.81934958 -0.02803447 3.90782888
C 14.70427903 10.54764958 0.01996453 4.09632491
C 15.93307903 9.88184958 0.04544493 4.07124228
C 15.98617903 8.48524958 0.02731333 4.09630973
C 14.79817903 7.72354958 -0.02048447 3.90784542
H 15.31967903 -10.70309042 0.10492603 0.91017623
H 0.62054903 -19.80515042 -1.07820147 0.9164927
H 2.72170903 -18.48495042 -1.05374147 0.91017278
H 16.94927903 7.97704958 0.05112103 0.91018304
H 17.42697903 -9.41067042 0.32038653 0.91652163
H 17.38817903 -6.92944042 0.31352153 0.91017328
H -1.57890097 -18.67365042 -0.87790947 0.91019566
H -16.87332097 -7.96904042 1.15606853 0.91015379
H -14.64952097 -11.64977042 0.89352353 0.91018282
H -0.64506697 19.83894958 0.32892053 0.91649113
H -17.40312097 6.89544958 0.90090453 0.9101674
H -2.74907097 18.52364958 0.30354653 0.91018938
H -16.80582097 -10.44971042 1.15545853 0.91649931
H -15.36652097 10.68754958 0.71414153 0.91017202
H -17.46582097 9.37624958 0.89061653 0.91650726
C 12.23617903 10.50734958 -0.04450247 4.07444268
H 14.67517903 11.63634958 0.03810313 0.91018286
H 16.85807903 10.45684958 0.08233873 0.91651994
C -14.78282097 -6.30122042 0.89359853 4.07433887
C -14.82742097 -5.07220042 0.88290153 4.00221492
C -14.87532097 -3.70125302 0.86952653 3.99995724
C -14.92062097 -2.46473042 0.85302653 4.00666979
C -14.97202097 -1.09982042 0.83364553 4.00324567
C -15.07522097 1.50319958 0.79087053 4.00662328
C -15.12652097 2.73941958 0.77003053 3.99998712
C -15.17422097 4.11030958 0.75182953 4.00207607
C -15.21502097 5.33941958 0.73697353 4.07446911
C -15.02202097 0.13839958 0.81265853 4.00326585
C -12.21682097 -10.54420042 0.59752153 4.07437895
C -11.14922097 -11.14049042 0.46574653 4.00218042
C -9.95552097 -11.80055042 0.31926453 3.99995843
C -8.87651097 -12.39147042 0.18536693 4.00666171
C -7.68332097 -13.04028042 0.03891153 4.003249
C -6.59901097 -13.62532042 -0.09590547 4.00326118
C -5.40054097 -14.26505042 -0.23922547 4.00664558
C -4.31298097 -14.84105042 -0.36901947 3.99998103
C -3.10245097 -15.47235042 -0.50397247 4.00214816
C -2.01396097 -16.03215042 -0.62389447 4.07441377
C 2.94394903 -15.81585042 -0.82644547 4.0743866
C 3.98804903 -15.16675042 -0.79199947 4.00215721
C 5.15146903 -14.44115042 -0.74594347 3.99997867
C 6.19985903 -13.78585042 -0.69179547 4.00664259
C 7.35861903 -13.06573042 -0.62229547 4.00325323
C 8.41058903 -12.41462042 -0.54742047 4.00324453
C 9.57137903 -11.70020042 -0.45604047 4.00664829
C 11.79097903 -10.34330042 -0.25322347 4.00211407
C 10.62477903 -11.05745042 -0.36300447 3.99996355
C 12.83607903 -9.70361042 -0.14697647 4.07441917
C 15.21917903 -5.35365042 0.09224623 4.0744609
C 15.19237903 -4.12408942 0.08309893 4.00208949
C 15.15927903 -2.75269942 0.07174363 3.99998084
C 15.12167903 -1.51589042 0.05740833 4.00663217
C 15.08057903 -0.15059042 0.04184103 4.00326186
C 15.04017903 1.08802958 0.02438723 4.00324804
C 14.99547903 2.45319958 0.00801753 4.00665571
C 14.95417903 3.68983958 -0.00948547 3.99996618
C 14.90527903 5.06075958 -0.01979947 4.00216284
C 14.85817903 6.28968958 -0.02897347 4.07440161
C -12.86872097 9.71054958 0.52337153 4.07438887
C -11.82712097 10.36054958 0.45129553 4.00214821
C -10.66362097 11.08394958 0.37950053 3.99997972
C -9.61180097 11.73364958 0.32560053 4.00664083
C -8.45114097 12.45234958 0.27657553 4.00325848
C -7.39762097 13.10434958 0.24295053 4.00325307
C -6.23707097 13.82444958 0.21571813 4.00666671
C -5.18633097 14.47794958 0.20017843 3.99996076
C -4.02078097 15.20144958 0.19246743 4.00219152
C -2.97438097 15.84774958 0.19193303 4.07436683
C 1.98721903 16.04184958 0.12566094 4.07451793
C 3.07155903 15.46244958 0.09281493 4.00204336
C 4.28021903 14.81444958 0.05856933 3.99998913
C 5.36575903 14.22114958 0.03102343 4.0066059
C 6.56599903 13.56944958 0.00528753 4.00326864
C 7.65414903 12.97644958 -0.01442847 4.0032394
C 8.85561903 12.32674958 -0.02987047 4.00664428
C 9.94567903 11.74114958 -0.04062147 3.99996887
C 11.15337903 11.09054958 -0.04378247 4.00211356
H 1.55551903 18.69464958 0.24730853 0.91017295
H 9.67889892 1.18863217 3.33942157 None
H 9.67889892 1.18863217 2.63942157 None
H 1.65771197 1.18863217 3.42703128 None
H 1.65771197 1.18863217 2.72703128 None
H 8.34203443 12.76621828 3.2445174 None
H 8.34203443 12.76621828 2.5445174 None
H 13.68949239 3.5041494 3.39230115 None
H 13.68949239 3.5041494 2.69230115 None
H 4.33144095 1.18863217 3.36417268 None
H 4.33144095 1.18863217 2.66417268 None
H 7.00516993 5.81966662 3.2626706 None
H 7.00516993 5.81966662 2.5626706 None
H 9.67889892 10.45070106 3.2326938 None
H 9.67889892 10.45070106 2.5326938 None
H 7.00516993 1.18863217 3.333452 None
H 7.00516993 1.18863217 2.633452 None
H 12.3526279 1.18863217 3.38663373 None
H 12.3526279 1.18863217 2.68663373 None
H 7.00516993 10.45070106 3.22672422 None
H 7.00516993 10.45070106 2.52672422 None
H 5.66830544 3.5041494 3.30968335 None
H 5.66830544 3.5041494 2.60968335 None
H 15.02635688 1.18863217 3.47964079 None
H 15.02635688 1.18863217 2.77964079 None
H 12.3526279 5.81966662 3.31585233 None
H 12.3526279 5.81966662 2.61585233 None
H 11.01576341 8.13518384 3.25956099 None
H 11.01576341 8.13518384 2.55956099 None
H 4.33144095 5.81966662 3.29339128 None
H 4.33144095 5.81966662 2.59339128 None
H 8.34203443 3.5041494 3.29673876 None
H 8.34203443 3.5041494 2.59673876 None
H 9.67889892 5.81966662 3.26864017 None
H 9.67889892 5.81966662 2.56864017 None
H 11.01576341 3.5041494 3.32276058 None
H 11.01576341 3.5041494 2.62276058 None
H 5.66830544 8.13518384 3.24648376 None
H 5.66830544 8.13518384 2.54648376 None
H 8.34203443 8.13518384 3.23353917 None
H 8.34203443 8.13518384 2.53353917 None
H 2.99457646 3.5041494 3.35704203 None
H 2.99457646 3.5041494 2.65704203 None
H 3.8100638 13.60752287 3.30309955 None
H 3.8100638 13.60752287 2.60309955 None
H -1.53739417 13.60752287 3.46698764 None
H -1.53739417 13.60752287 2.76698764 None
H -4.21112315 13.60752287 3.5844262 None
H -4.21112315 13.60752287 2.8844262 None
H 3.8100638 8.97648843 3.27019999 None
H 3.8100638 8.97648843 2.57019999 None
H -0.20052967 6.66097121 3.40503407 None
H -0.20052967 6.66097121 2.70503407 None
H 5.14692829 11.29200565 3.24780964 None
H 5.14692829 11.29200565 2.54780964 None
H 1.13633482 8.97648843 3.33879508 None
H 1.13633482 8.97648843 2.63879508 None
H -6.88485213 13.60752287 3.71945799 None
H -6.88485213 13.60752287 3.01945799 None
H -4.21112315 8.97648843 3.55152663 None
H -4.21112315 8.97648843 2.85152663 None
H -2.87425866 6.66097121 3.51196889 None
H -2.87425866 6.66097121 2.81196889 None
H 2.47319931 6.66097121 3.32252098 None
H 2.47319931 6.66097121 2.62252098 None
H -1.53739417 4.34545399 3.48966088 None
H -1.53739417 4.34545399 2.78966088 None
H 6.48379278 13.60752287 3.26575467 None
H 6.48379278 13.60752287 2.56575467 None
H 2.47319931 11.29200565 3.30134866 None
H 2.47319931 11.29200565 2.60134866 None
H 1.13633482 4.34545399 3.39436789 None
H 1.13633482 4.34545399 2.69436789 None
H -1.53739417 8.97648843 3.43408808 None
H -1.53739417 8.97648843 2.73408808 None
H -2.87425866 11.29200565 3.49079657 None
H -2.87425866 11.29200565 2.79079657 None
H -0.20052967 2.02993676 3.47533596 None
H -0.20052967 2.02993676 2.77533596 None
H -5.54798764 11.29200565 3.61760079 None
H -5.54798764 11.29200565 2.91760079 None
H 1.13633482 13.60752287 3.37169465 None
H 1.13633482 13.60752287 2.67169465 None
H -0.20052967 11.29200565 3.38386175 None
H -0.20052967 11.29200565 2.68386175 None
H -11.21629308 7.78785626 3.93995694 None
H -11.21629308 7.78785626 3.23995694 None
H -4.53197063 0.84130459 3.6752602 None
H -4.53197063 0.84130459 2.9752602 None
H -8.5425641 3.15682181 3.85167595 None
H -8.5425641 3.15682181 3.15167595 None
H -8.5425641 12.4188907 3.78877053 None
H -8.5425641 12.4188907 3.08877053 None
H -7.20569961 0.84130459 3.81209727 None
H -7.20569961 0.84130459 3.11209727 None
H -5.86883512 7.78785626 3.64243161 None
H -5.86883512 7.78785626 2.94243161 None
H -3.19510613 3.15682181 3.57913989 None
H -3.19510613 3.15682181 2.87913989 None
H -5.86883512 3.15682181 3.70802252 None
H -5.86883512 3.15682181 3.00802252 None
H -9.87942859 0.84130459 3.96142897 None
H -9.87942859 0.84130459 3.26142897 None
H -8.5425641 7.78785626 3.78608504 None
H -8.5425641 7.78785626 3.08608504 None
H -12.55315757 5.47233903 4.04848097 None
H -12.55315757 5.47233903 3.34848097 None
H -13.89002206 3.15682181 4.1650859 None
H -13.89002206 3.15682181 3.4650859 None
H -7.20569961 10.10337348 3.70058684 None
H -7.20569961 10.10337348 3.00058684 None
H -15.22688656 0.84130459 4.27936698 None
H -15.22688656 0.84130459 3.57936698 None
H -4.53197063 5.47233903 3.60503818 None
H -4.53197063 5.47233903 2.90503818 None
H -7.20569961 5.47233903 3.74187525 None
H -7.20569961 5.47233903 3.04187525 None
H -11.21629308 3.15682181 4.00554785 None
H -11.21629308 3.15682181 3.30554785 None
H -9.87942859 10.10337348 3.84991855 None
H -9.87942859 10.10337348 3.14991855 None
H -9.87942859 5.47233903 3.89120696 None
H -9.87942859 5.47233903 3.19120696 None
H -1.85824164 0.84130459 3.55547009 None
H -1.85824164 0.84130459 2.85547009 None
H -12.55315757 0.84130459 4.11870299 None
H -12.55315757 0.84130459 3.41870299 None
H -8.34203443 -8.13518384 3.79864809 None
H -8.34203443 -8.13518384 3.09864809 None
H -8.34203443 -3.5041494 3.89641879 None
H -8.34203443 -3.5041494 3.19641879 None
H -4.33144095 -1.18863217 3.68536907 None
H -4.33144095 -1.18863217 2.98536907 None
H -15.02635688 -1.18863217 4.28704195 None
H -15.02635688 -1.18863217 3.58704195 None
H -5.66830544 -8.13518384 3.65594456 None
H -5.66830544 -8.13518384 2.95594456 None
H -1.65771197 -1.18863217 3.567041 None
H -1.65771197 -1.18863217 2.867041 None
H -12.3526279 -5.81966662 4.10033194 None
H -12.3526279 -5.81966662 3.40033194 None
H -7.00516993 -5.81966662 3.79494318 None
H -7.00516993 -5.81966662 3.09494318 None
H -9.67889892 -10.45070106 3.75442525 None
H -9.67889892 -10.45070106 3.05442525 None
H -11.01576341 -8.13518384 3.95191151 None
H -11.01576341 -8.13518384 3.25191151 None
H -7.00516993 -1.18863217 3.82108553 None
H -7.00516993 -1.18863217 3.12108553 None
H -7.00516993 -10.45070106 3.60587273 None
H -7.00516993 -10.45070106 2.90587273 None
H -9.67889892 -1.18863217 3.96963805 None
H -9.67889892 -1.18863217 3.26963805 None
H -8.34203443 -12.76621828 3.4986065 None
H -8.34203443 -12.76621828 2.7986065 None
H -9.67889892 -5.81966662 3.94349569 None
H -9.67889892 -5.81966662 3.24349569 None
H -4.33144095 -5.81966662 3.65922672 None
H -4.33144095 -5.81966662 2.95922672 None
H -12.3526279 -1.18863217 4.1264743 None
H -12.3526279 -1.18863217 3.4264743 None
H -2.99457646 -3.5041494 3.62612395 None
H -2.99457646 -3.5041494 2.92612395 None
H -13.68949239 -3.5041494 4.2089532 None
H -13.68949239 -3.5041494 3.5089532 None
H -11.01576341 -3.5041494 4.04968221 None
H -11.01576341 -3.5041494 3.34968221 None
H -5.66830544 -3.5041494 3.75371526 None
H -5.66830544 -3.5041494 3.05371526 None
H 1.53739417 -13.60752287 2.97700711 None
H 1.53739417 -13.60752287 2.27700711 None
H 0.20052967 -2.02993676 3.50127025 None
H 0.20052967 -2.02993676 2.80127025 None
H 0.20052967 -11.29200565 3.2242634 None
H 0.20052967 -11.29200565 2.5242634 None
H 1.53739417 -8.97648843 3.32224027 None
H 1.53739417 -8.97648843 2.62224027 None
H 2.87425866 -6.66097121 3.37292096 None
H 2.87425866 -6.66097121 2.67292096 None
H -6.48379278 -13.60752287 3.31567559 None
H -6.48379278 -13.60752287 2.61567559 None
H -1.13633482 -4.34545399 3.54248651 None
H -1.13633482 -4.34545399 2.84248651 None
H -1.13633482 -13.60752287 3.06858563 None
H -1.13633482 -13.60752287 2.36858563 None
H -3.8100638 -13.60752287 3.18299256 None
H -3.8100638 -13.60752287 2.48299256 None
H -5.14692829 -11.29200565 3.45193919 None
H -5.14692829 -11.29200565 2.75193919 None
H 0.20052967 -6.66097121 3.45137815 None
H 0.20052967 -6.66097121 2.75137815 None
H -3.8100638 -8.97648843 3.52822572 None
H -3.8100638 -8.97648843 2.82822572 None
H 5.54798764 -11.29200565 3.09700594 None
H 5.54798764 -11.29200565 2.39700594 None
H 2.87425866 -11.29200565 3.14580622 None
H 2.87425866 -11.29200565 2.44580622 None
H 6.88485213 -13.60752287 2.88054463 None
H 6.88485213 -13.60752287 2.18054463 None
H 4.21112315 -8.97648843 3.25804249 None
H 4.21112315 -8.97648843 2.55804249 None
H -1.13633482 -8.97648843 3.41381878 None
H -1.13633482 -8.97648843 2.71381878 None
H 4.21112315 -13.60752287 2.91280934 None
H 4.21112315 -13.60752287 2.21280934 None
H -2.47319931 -11.29200565 3.32782517 None
H -2.47319931 -11.29200565 2.62782517 None
H -2.47319931 -6.66097121 3.55493991 None
H -2.47319931 -6.66097121 2.85493991 None
H 1.53739417 -4.34545399 3.45090799 None
H 1.53739417 -4.34545399 2.75090799 None
H 9.87942859 -5.47233903 3.3462271 None
H 9.87942859 -5.47233903 2.6462271 None
H 8.5425641 -7.78785626 3.27434666 None
H 8.5425641 -7.78785626 2.57434666 None
H 1.85824164 -0.84130459 3.44314999 None
H 1.85824164 -0.84130459 2.74314999 None
H 4.53197063 -5.47233903 3.36544906 None
H 4.53197063 -5.47233903 2.66544906 None
H 8.5425641 -12.4188907 2.9922048 None
H 8.5425641 -12.4188907 2.2922048 None
H 11.21629308 -3.15682181 3.38924688 None
H 11.21629308 -3.15682181 2.68924688 None
H 9.87942859 -0.84130459 3.36332187 None
H 9.87942859 -0.84130459 2.66332187 None
H 13.89002206 -3.15682181 3.46223487 None
H 13.89002206 -3.15682181 2.76223487 None
H 5.86883512 -3.15682181 3.37029908 None
H 5.86883512 -3.15682181 2.67029908 None
H 8.5425641 -3.15682181 3.36011906 None
H 8.5425641 -3.15682181 2.66011906 None
H 11.21629308 -7.78785626 3.30347448 None
H 11.21629308 -7.78785626 2.60347448 None
H 5.86883512 -7.78785626 3.28452668 None
H 5.86883512 -7.78785626 2.58452668 None
H 12.55315757 -5.47233903 3.39671597 None
H 12.55315757 -5.47233903 2.69671597 None
H 9.87942859 -10.10337348 3.17210567 None
H 9.87942859 -10.10337348 2.47210567 None
H 7.20569961 -0.84130459 3.35441701 None
H 7.20569961 -0.84130459 2.65441701 None
H 15.22688656 -0.84130459 3.51043592 None
H 15.22688656 -0.84130459 2.81043592 None
H 12.55315757 -0.84130459 3.41381073 None
H 12.55315757 -0.84130459 2.71381073 None
H 7.20569961 -10.10337348 3.16320081 None
H 7.20569961 -10.10337348 2.46320081 None
H 7.20569961 -5.47233903 3.33732225 None
H 7.20569961 -5.47233903 2.63732225 None
H 3.19510613 -3.15682181 3.41523461 None
H 3.19510613 -3.15682181 2.71523461 None
H 4.53197063 -0.84130459 3.38254382 None
H 4.53197063 -0.84130459 2.68254382 None
H 2.99457646 3.5041494 -2.74295797 None
H 2.99457646 3.5041494 -3.44295797 None
H 8.34203443 3.5041494 -2.80326124 None
H 8.34203443 3.5041494 -3.50326124 None
H 12.3526279 1.18863217 -2.71336627 None
H 12.3526279 1.18863217 -3.41336627 None
H 5.66830544 8.13518384 -2.85351624 None
H 5.66830544 8.13518384 -3.55351624 None
H 15.02635688 1.18863217 -2.62035921 None
H 15.02635688 1.18863217 -3.32035921 None
H 8.34203443 12.76621828 -2.8554826 None
H 8.34203443 12.76621828 -3.5554826 None
H 8.34203443 8.13518384 -2.86646083 None
H 8.34203443 8.13518384 -3.56646083 None
H 7.00516993 5.81966662 -2.8373294 None
H 7.00516993 5.81966662 -3.5373294 None
H 7.00516993 10.45070106 -2.87327578 None
H 7.00516993 10.45070106 -3.57327578 None
H 13.68949239 3.5041494 -2.70769885 None
H 13.68949239 3.5041494 -3.40769885 None
H 12.3526279 5.81966662 -2.78414767 None
H 12.3526279 5.81966662 -3.48414767 None
H 9.67889892 5.81966662 -2.83135983 None
H 9.67889892 5.81966662 -3.53135983 None
H 1.65771197 1.18863217 -2.67296872 None
H 1.65771197 1.18863217 -3.37296872 None
H 11.01576341 3.5041494 -2.77723942 None
H 11.01576341 3.5041494 -3.47723942 None
H 9.67889892 1.18863217 -2.76057843 None
H 9.67889892 1.18863217 -3.46057843 None
H 9.67889892 10.45070106 -2.8673062 None
H 9.67889892 10.45070106 -3.5673062 None
H 4.33144095 1.18863217 -2.73582732 None
H 4.33144095 1.18863217 -3.43582732 None
H 5.66830544 3.5041494 -2.79031665 None
H 5.66830544 3.5041494 -3.49031665 None
H 11.01576341 8.13518384 -2.84043901 None
H 11.01576341 8.13518384 -3.54043901 None
H 7.00516993 1.18863217 -2.766548 None
H 7.00516993 1.18863217 -3.466548 None
H 4.33144095 5.81966662 -2.80660872 None
H 4.33144095 5.81966662 -3.50660872 None
H -4.21112315 13.60752287 -2.5155738 None
H -4.21112315 13.60752287 -3.2155738 None
H 2.47319931 11.29200565 -2.79865134 None
H 2.47319931 11.29200565 -3.49865134 None
H 6.48379278 13.60752287 -2.83424533 None
H 6.48379278 13.60752287 -3.53424533 None
H 1.13633482 8.97648843 -2.76120492 None
H 1.13633482 8.97648843 -3.46120492 None
H -1.53739417 4.34545399 -2.61033912 None
H -1.53739417 4.34545399 -3.31033912 None
H 3.8100638 8.97648843 -2.82980001 None
H 3.8100638 8.97648843 -3.52980001 None
H -4.21112315 8.97648843 -2.54847337 None
H -4.21112315 8.97648843 -3.24847337 None
H -1.53739417 8.97648843 -2.66591192 None
H -1.53739417 8.97648843 -3.36591192 None
H -5.54798764 11.29200565 -2.48239921 None
H -5.54798764 11.29200565 -3.18239921 None
H 2.47319931 6.66097121 -2.77747902 None
H 2.47319931 6.66097121 -3.47747902 None
H -2.87425866 11.29200565 -2.60920343 None
H -2.87425866 11.29200565 -3.30920343 None
H -2.87425866 6.66097121 -2.58803111 None
H -2.87425866 6.66097121 -3.28803111 None
H -6.88485213 13.60752287 -2.38054201 None
H -6.88485213 13.60752287 -3.08054201 None
H -0.20052967 6.66097121 -2.69496593 None
H -0.20052967 6.66097121 -3.39496593 None
H 3.8100638 13.60752287 -2.79690045 None
H 3.8100638 13.60752287 -3.49690045 None
H 1.13633482 4.34545399 -2.70563211 None
H 1.13633482 4.34545399 -3.40563211 None
H -0.20052967 11.29200565 -2.71613825 None
H -0.20052967 11.29200565 -3.41613825 None
H 5.14692829 11.29200565 -2.85219036 None
H 5.14692829 11.29200565 -3.55219036 None
H -1.53739417 13.60752287 -2.63301236 None
H -1.53739417 13.60752287 -3.33301236 None
H -0.20052967 2.02993676 -2.62466404 None
H -0.20052967 2.02993676 -3.32466404 None
H 1.13633482 13.60752287 -2.72830535 None
H 1.13633482 13.60752287 -3.42830535 None
H -5.86883512 7.78785626 -2.45756839 None
H -5.86883512 7.78785626 -3.15756839 None
H -15.22688656 0.84130459 -1.82063302 None
H -15.22688656 0.84130459 -2.52063302 None
H -8.5425641 3.15682181 -2.24832405 None
H -8.5425641 3.15682181 -2.94832405 None
H -5.86883512 3.15682181 -2.39197748 None
H -5.86883512 3.15682181 -3.09197748 None
H -8.5425641 12.4188907 -2.31122947 None
H -8.5425641 12.4188907 -3.01122947 None
H -1.85824164 0.84130459 -2.54452991 None
H -1.85824164 0.84130459 -3.24452991 None
H -4.53197063 0.84130459 -2.4247398 None
H -4.53197063 0.84130459 -3.1247398 None
H -4.53197063 5.47233903 -2.49496182 None
H -4.53197063 5.47233903 -3.19496182 None
H -7.20569961 5.47233903 -2.35812475 None
H -7.20569961 5.47233903 -3.05812475 None
H -7.20569961 0.84130459 -2.28790273 None
H -7.20569961 0.84130459 -2.98790273 None
H -12.55315757 0.84130459 -1.98129701 None
H -12.55315757 0.84130459 -2.68129701 None
H -12.55315757 5.47233903 -2.05151903 None
H -12.55315757 5.47233903 -2.75151903 None
H -9.87942859 10.10337348 -2.25008145 None
H -9.87942859 10.10337348 -2.95008145 None
H -9.87942859 0.84130459 -2.13857103 None
H -9.87942859 0.84130459 -2.83857103 None
H -13.89002206 3.15682181 -1.9349141 None
H -13.89002206 3.15682181 -2.6349141 None
H -8.5425641 7.78785626 -2.31391496 None
H -8.5425641 7.78785626 -3.01391496 None
H -7.20569961 10.10337348 -2.39941316 None
H -7.20569961 10.10337348 -3.09941316 None
H -11.21629308 3.15682181 -2.09445215 None
H -11.21629308 3.15682181 -2.79445215 None
H -3.19510613 3.15682181 -2.52086011 None
H -3.19510613 3.15682181 -3.22086011 None
H -11.21629308 7.78785626 -2.16004306 None
H -11.21629308 7.78785626 -2.86004306 None
H -9.87942859 5.47233903 -2.20879304 None
H -9.87942859 5.47233903 -2.90879304 None
H -2.99457646 -3.5041494 -2.47387605 None
H -2.99457646 -3.5041494 -3.17387605 None
H -5.66830544 -3.5041494 -2.34628474 None
H -5.66830544 -3.5041494 -3.04628474 None
H -8.34203443 -12.76621828 -2.6013935 None
H -8.34203443 -12.76621828 -3.3013935 None
H -7.00516993 -10.45070106 -2.49412727 None
H -7.00516993 -10.45070106 -3.19412727 None
H -11.01576341 -3.5041494 -2.05031779 None
H -11.01576341 -3.5041494 -2.75031779 None
H -7.00516993 -5.81966662 -2.30505682 None
H -7.00516993 -5.81966662 -3.00505682 None
H -9.67889892 -1.18863217 -2.13036195 None
H -9.67889892 -1.18863217 -2.83036195 None
H -5.66830544 -8.13518384 -2.44405544 None
H -5.66830544 -8.13518384 -3.14405544 None
H -9.67889892 -10.45070106 -2.34557475 None
H -9.67889892 -10.45070106 -3.04557475 None
H -1.65771197 -1.18863217 -2.532959 None
H -1.65771197 -1.18863217 -3.232959 None
H -13.68949239 -3.5041494 -1.8910468 None
H -13.68949239 -3.5041494 -2.5910468 None
H -11.01576341 -8.13518384 -2.14808849 None
H -11.01576341 -8.13518384 -2.84808849 None
H -15.02635688 -1.18863217 -1.81295805 None
H -15.02635688 -1.18863217 -2.51295805 None
H -8.34203443 -8.13518384 -2.30135191 None
H -8.34203443 -8.13518384 -3.00135191 None
H -12.3526279 -5.81966662 -1.99966806 None
H -12.3526279 -5.81966662 -2.69966806 None
H -12.3526279 -1.18863217 -1.9735257 None
H -12.3526279 -1.18863217 -2.6735257 None
H -8.34203443 -3.5041494 -2.20358121 None
H -8.34203443 -3.5041494 -2.90358121 None
H -7.00516993 -1.18863217 -2.27891447 None
H -7.00516993 -1.18863217 -2.97891447 None
H -9.67889892 -5.81966662 -2.15650431 None
H -9.67889892 -5.81966662 -2.85650431 None
H -4.33144095 -1.18863217 -2.41463093 None
H -4.33144095 -1.18863217 -3.11463093 None
H -4.33144095 -5.81966662 -2.44077328 None
H -4.33144095 -5.81966662 -3.14077328 None
H 6.88485213 -13.60752287 -3.21945537 None
H 6.88485213 -13.60752287 -3.91945537 None
H -2.47319931 -11.29200565 -2.77217483 None
H -2.47319931 -11.29200565 -3.47217483 None
H -1.13633482 -13.60752287 -3.03141437 None
H -1.13633482 -13.60752287 -3.73141437 None
H 4.21112315 -13.60752287 -3.18719066 None
H 4.21112315 -13.60752287 -3.88719066 None
H 2.87425866 -11.29200565 -2.95419378 None
H 2.87425866 -11.29200565 -3.65419378 None
H 1.53739417 -4.34545399 -2.64909201 None
H 1.53739417 -4.34545399 -3.34909201 None
H -1.13633482 -4.34545399 -2.55751349 None
H -1.13633482 -4.34545399 -3.25751349 None
H -6.48379278 -13.60752287 -2.78432441 None
H -6.48379278 -13.60752287 -3.48432441 None
H -3.8100638 -13.60752287 -2.91700744 None
H -3.8100638 -13.60752287 -3.61700744 None
H -1.13633482 -8.97648843 -2.68618122 None
H -1.13633482 -8.97648843 -3.38618122 None
H 1.53739417 -8.97648843 -2.77775973 None
H 1.53739417 -8.97648843 -3.47775973 None
H 0.20052967 -6.66097121 -2.64862185 None
H 0.20052967 -6.66097121 -3.34862185 None
H 5.54798764 -11.29200565 -3.00299406 None
H 5.54798764 -11.29200565 -3.70299406 None
H 0.20052967 -2.02993676 -2.59872975 None
H 0.20052967 -2.02993676 -3.29872975 None
H 0.20052967 -11.29200565 -2.8757366 None
H 0.20052967 -11.29200565 -3.5757366 None
H 2.87425866 -6.66097121 -2.72707904 None
H 2.87425866 -6.66097121 -3.42707904 None
H -5.14692829 -11.29200565 -2.64806081 None
H -5.14692829 -11.29200565 -3.34806081 None
H -2.47319931 -6.66097121 -2.54506009 None
H -2.47319931 -6.66097121 -3.24506009 None
H 4.21112315 -8.97648843 -2.84195751 None
H 4.21112315 -8.97648843 -3.54195751 None
H -3.8100638 -8.97648843 -2.57177428 None
H -3.8100638 -8.97648843 -3.27177428 None
H 1.53739417 -13.60752287 -3.12299289 None
H 1.53739417 -13.60752287 -3.82299289 None
H 11.21629308 -7.78785626 -2.79652552 None
H 11.21629308 -7.78785626 -3.49652552 None
H 7.20569961 -5.47233903 -2.76267775 None
H 7.20569961 -5.47233903 -3.46267775 None
H 11.21629308 -3.15682181 -2.71075312 None
H 11.21629308 -3.15682181 -3.41075312 None
H 13.89002206 -3.15682181 -2.63776513 None
H 13.89002206 -3.15682181 -3.33776513 None
H 9.87942859 -0.84130459 -2.73667813 None
H 9.87942859 -0.84130459 -3.43667813 None
H 15.22688656 -0.84130459 -2.58956408 None
H 15.22688656 -0.84130459 -3.28956408 None
H 8.5425641 -3.15682181 -2.73988094 None
H 8.5425641 -3.15682181 -3.43988094 None
H 12.55315757 -5.47233903 -2.70328403 None
H 12.55315757 -5.47233903 -3.40328403 None
H 9.87942859 -10.10337348 -2.92789433 None
H 9.87942859 -10.10337348 -3.62789433 None
H 4.53197063 -5.47233903 -2.73455094 None
H 4.53197063 -5.47233903 -3.43455094 None
H 1.85824164 -0.84130459 -2.65685001 None
H 1.85824164 -0.84130459 -3.35685001 None
H 5.86883512 -7.78785626 -2.81547332 None
H 5.86883512 -7.78785626 -3.51547332 None
H 7.20569961 -0.84130459 -2.74558299 None
H 7.20569961 -0.84130459 -3.44558299 None
H 5.86883512 -3.15682181 -2.72970092 None
H 5.86883512 -3.15682181 -3.42970092 None
H 12.55315757 -0.84130459 -2.68618927 None
H 12.55315757 -0.84130459 -3.38618927 None
H 9.87942859 -5.47233903 -2.7537729 None
H 9.87942859 -5.47233903 -3.4537729 None
H 8.5425641 -12.4188907 -3.1077952 None
H 8.5425641 -12.4188907 -3.8077952 None
H 7.20569961 -10.10337348 -2.93679919 None
H 7.20569961 -10.10337348 -3.63679919 None
H 8.5425641 -7.78785626 -2.82565334 None
H 8.5425641 -7.78785626 -3.52565334 None
H 4.53197063 -0.84130459 -2.71745618 None
H 4.53197063 -0.84130459 -3.41745618 None
H 3.19510613 -3.15682181 -2.68476539 None
H 3.19510613 -3.15682181 -3.38476539 None