  288
Geometry Step: 20
    C      2.27720757      6.49150742     -0.00000000      3.99205025
    C      2.27840955      7.71843829      0.00000000      4.06813762
    C      1.04093297      1.75440073     -0.00000000      3.93982318
    C      1.03971652      0.33193000     -0.00000000      3.93980973
    C      2.27102827     -0.38037605      0.00000000      3.93981945
    C      3.50354547      0.32991886      0.00000000      3.93981779
    C      3.50486380      1.75243141     -0.00000000      3.93980989
    C      2.27347127      2.46456977     -0.00000000      3.93981320
    C      2.27460279      3.89053163      0.00000000      4.06814418
    C      2.27587078      5.11745783     -0.00000000      3.99204211
    C      4.73796356     -0.38407368      0.00000000      4.06814870
    C      5.80020870     -0.99813453     -0.00000000      3.99204243
    C      6.98965699     -1.68621207     -0.00000000      3.99204034
    C      8.05143485     -2.30111509      0.00000000      4.06814811
    C      4.74046110      2.46455118      0.00000000      4.06814480
    C      5.80351971      3.07726681     -0.00000000      3.99203325
    C      6.99422871      3.76326445     -0.00000000      3.99202840
    C      8.05756510      4.37550236     -0.00000000      4.06814910
    C     10.52213292      1.72193905      0.00000000      3.99205068
    C     10.52324616      2.94887323     -0.00000000      4.06813740
    C      9.28582786     -3.01519309     -0.00000000      3.93982339
    C      9.28461458     -4.43765954     -0.00000000      3.93981080
    C     10.51593605     -5.14994220      0.00000000      3.93982008
    C     11.74844505     -4.43963231      0.00000000      3.93981847
    C     11.74974263     -3.01711685      0.00000000      3.93980935
    C     10.51834063     -2.30499714     -0.00000000      3.93981284
    C     10.51942611     -0.87903603      0.00000000      4.06814479
    C     10.52079557      0.34789107     -0.00000000      3.99204074
    C     12.98283714     -5.15364523      0.00000000      4.06814817
    C     14.04510493     -5.76766266     -0.00000000      3.99204299
    C     15.23455221     -6.45572511     -0.00000000      3.99204037
    C     16.29631987     -7.07063443     -0.00000000      4.06814651
    C     12.98532863     -2.30499157     -0.00000000      4.06814701
    C     14.04841226     -1.69230614     -0.00000000      3.99203345
    C     15.23912153     -1.00631865     -0.00000000      3.99202919
    C     16.30245144     -0.39407380      0.00000000      4.06814714
    C     18.76710132     -3.04760940      0.00000000      3.99205128
    C     18.76816328     -1.82067692      0.00000000      4.06813710
    C     17.53069063     -7.78474085     -0.00000000      3.93982272
    C     17.52947889     -9.20721024      0.00000000      3.93981075
    C     18.76079800     -9.91949234     -0.00000000      3.93981840
    C     19.99329460     -9.20917878     -0.00000000      3.93981759
    C     19.99459022     -7.78667420     -0.00000000      3.93980804
    C     18.76320202     -7.07454883     -0.00000000      3.93981154
    C     18.76434218     -5.64858722      0.00000000      4.06814427
    C     18.76576447     -4.42166196      0.00000000      3.99204156
    C     21.22769962     -9.92317155     -0.00000000      4.06814648
    C     22.28998109    -10.53715760      0.00000000      3.99204407
    C     23.47942856    -11.22523022     -0.00000000      3.99203941
    C     24.54116088    -11.84020475     -0.00000000      4.06814799
    C     21.23018669     -7.07456998      0.00000000      4.06814534
    C     22.29328361     -6.46191272     -0.00000000      3.99203475
    C     23.48399441     -5.77591629     -0.00000000      3.99202854
    C     24.54729605     -5.16361183      0.00000000      4.06815022
    C     27.01206353     -7.81716008     -0.00000000      3.99205188
    C     27.01300335     -6.59022474     -0.00000000      4.06813721
    C     25.77554106    -12.55429801      0.00000000      3.93982197
    C     25.77433920    -13.97676286     -0.00000000      3.93981226
    C     27.00566108    -14.68904487     -0.00000000      3.93981923
    C     28.23816863    -13.97874872      0.00000000      3.93981600
    C     28.23944532    -12.55624151     -0.00000000      3.93980983
    C     27.00805255    -11.84410978     -0.00000000      3.93981191
    C     27.00918014    -10.41814368     -0.00000000      4.06814586
    C     27.01072551     -9.19121378      0.00000000      3.99204039
    C     29.47258127    -14.69273611      0.00000000      4.06814661
    C     30.53486589    -15.30670162      0.00000000      3.99204081
    C     31.72431522    -15.99477737      0.00000000      3.99204101
    C     32.78603022    -16.60979958     -0.00000000      4.06814716
    C     29.47504831    -11.84412402      0.00000000      4.06814998
    C     30.53815042    -11.23147520      0.00000000      3.99203176
    C     31.72886327    -10.54548868      0.00000000      3.99203414
    C     32.79218225     -9.93319799     -0.00000000      4.06814317
    C      2.28689599     16.01583771     -0.00000000      3.99204897
    C      2.28807920     17.24274796      0.00000000      4.06814557
    C      1.05016211     11.27928483      0.00000000      3.93981663
    C      1.04848437      9.85680728      0.00000000      3.93978967
    C      2.27975268      9.14441924      0.00000000      3.93983905
    C      3.51250166      9.85427963      0.00000000      3.93981720
    C      3.51425548     11.27675181     -0.00000000      3.93979296
    C      2.28295693     11.98902008      0.00000000      3.93983081
    C      2.28442460     13.41492365      0.00000000      4.06813418
    C      2.28555632     14.64182498      0.00000000      3.99205717
    C      4.74670745      9.13992847      0.00000000      4.06814353
    C      5.80917196      8.52625541     -0.00000000      3.99204533
    C      6.99870032      7.83833060      0.00000000      3.99203891
    C      8.06093752      7.22423234      0.00000000      4.06814894
    C      4.75001686     11.98866447     -0.00000000      4.06814623
    C      5.81314390     12.60130320      0.00000000      3.99202728
    C      7.00391795     13.28727353     -0.00000000      3.99202623
    C      8.06725134     13.89955923      0.00000000      4.06815109
    C     10.53182173     11.24626763     -0.00000000      3.99204934
    C     10.53291602     12.47318374      0.00000000      4.06814536
    C      9.29505531      6.50969106      0.00000000      3.93981650
    C      9.29337842      5.08721763      0.00000000      3.93979204
    C     10.52465619      4.37485249      0.00000000      3.93983931
    C     11.75739768      5.08472690     -0.00000000      3.93981805
    C     11.75913241      6.50720258      0.00000000      3.93979230
    C     10.52782486      7.21945294      0.00000000      3.93983025
    C     10.52924720      8.64535472      0.00000000      4.06813501
    C     10.53048116      9.87225920      0.00000000      3.99205562
    C     12.99157601      4.37035370     -0.00000000      4.06814296
    C     14.05406653      3.75672845      0.00000000      3.99204600
    C     15.24359385      3.06881915     -0.00000000      3.99203867
    C     16.30582044      2.45471397      0.00000000      4.06814745
    C     12.99488392      7.21911940      0.00000000      4.06814856
    C     14.05803500      7.83172894     -0.00000000      3.99202731
    C     15.24880981      8.51769028      0.00000000      3.99202715
    C     16.31213734      9.12998191     -0.00000000      4.06814900
    C     18.77679036      6.47671940     -0.00000000      3.99204992
    C     18.77783372      7.70363359      0.00000000      4.06814512
    C     17.53991663      1.74014389      0.00000000      3.93981581
    C     17.53824360      0.31766779      0.00000000      3.93979183
    C     18.76951873     -0.39469681     -0.00000000      3.93983781
    C     20.00224768      0.31518105     -0.00000000      3.93981686
    C     20.00397953      1.73764570     -0.00000000      3.93979117
    C     18.77268526      2.44990129     -0.00000000      3.93982897
    C     18.77416287      3.87580347     -0.00000000      4.06813448
    C     18.77545056      5.10270620      0.00000000      3.99205653
    C     21.23643837     -0.39917163      0.00000000      4.06814136
    C     22.29894366     -1.01276670      0.00000000      3.99204698
    C     23.48846967     -1.70068546      0.00000000      3.99203771
    C     24.55066295     -2.31485576      0.00000000      4.06814899
    C     21.23974178      2.44954149     -0.00000000      4.06814682
    C     22.30290593      3.06212211      0.00000000      3.99202865
    C     23.49368299      3.74809232      0.00000000      3.99202646
    C     24.55698178      4.36044377     -0.00000000      4.06815220
    C     27.02175252      1.70716817     -0.00000000      3.99205057
    C     27.02267402      2.93408581      0.00000000      4.06814524
    C     25.78476767     -3.02941286     -0.00000000      3.93981483
    C     25.78310372     -4.45188432      0.00000000      3.93979351
    C     27.01438110     -5.16424911     -0.00000000      3.93983848
    C     28.24712127     -4.45438935      0.00000000      3.93981537
    C     28.24883517     -3.03192208      0.00000000      3.93979274
    C     27.01753651     -2.31965971      0.00000000      3.93982946
    C     27.01900175     -0.89375293      0.00000000      4.06813605
    C     27.02041155      0.33315431     -0.00000000      3.99205527
    C     29.48131995     -5.16873736      0.00000000      4.06814159
    C     30.54382915     -5.78231075     -0.00000000      3.99204401
    C     31.73335846     -6.47023499     -0.00000000      3.99203919
    C     32.79553401     -7.08444949     -0.00000000      4.06814814
    C     29.48460311     -2.32001333      0.00000000      4.06815136
    C     30.54777345     -1.70743983     -0.00000000      3.99202580
    C     31.73855142     -1.02147952     -0.00000000      3.99203189
    C     32.80186756     -0.40914145      0.00000000      4.06814515
    C      2.29654037     25.54001807      0.00000000      3.99203624
    C      2.29764359     26.76693843      0.00000000      4.06815097
    C      1.05986599     20.80345189      0.00000000      3.93981421
    C      1.05815259     19.38098366      0.00000000      3.93978954
    C      2.28946402     18.66869465      0.00000000      3.93984217
    C      3.52225309     19.37847751      0.00000000      3.93981866
    C      3.52402729     20.80094506     -0.00000000      3.93978422
    C      2.29268812     21.51317994     -0.00000000      3.93984527
    C      2.29411575     22.93909048     -0.00000000      4.06812820
    C      2.29521875     24.16599910      0.00000000      3.99206495
    C      4.75638444     18.66399679     -0.00000000      4.06814183
    C      5.81882113     18.05027343     -0.00000000      3.99204285
    C      7.00833857     17.36235187     -0.00000000      3.99203716
    C      8.07061361     16.74832802      0.00000000      4.06814902
    C      4.75981089     21.51282080     -0.00000000      4.06815970
    C      5.82297012     22.12539554      0.00000000      3.99201480
    C      7.01371177     22.81140236      0.00000000      3.99204327
    C      8.07687419     23.42396967      0.00000000      4.06813922
    C     10.54146536     20.77044896     -0.00000000      3.99203667
    C     10.54247883     21.99737295      0.00000000      4.06815077
    C      9.30475885     16.03385846     -0.00000000      3.93981366
    C      9.30304692     14.61139451      0.00000000      3.93979208
    C     10.53436758     13.89912783     -0.00000000      3.93984212
    C     11.76714898     14.60892520      0.00000000      3.93981994
    C     11.76890424     16.03139620     -0.00000000      3.93978317
    C     10.53755586     16.74361270      0.00000000      3.93984513
    C     10.53893812     18.16952244     -0.00000000      4.06812892
    C     10.54014320     19.39643171      0.00000000      3.99206350
    C     13.00125407     13.89442154     -0.00000000      4.06814127
    C     14.06371432     13.28074671     -0.00000000      3.99204347
    C     15.25323284     12.59283944     -0.00000000      3.99203712
    C     16.31549583     11.97880906      0.00000000      4.06814744
    C     13.00467693     16.74327535      0.00000000      4.06816200
    C     14.06786183     17.35582248      0.00000000      3.99201494
    C     15.25860304     18.04181863     -0.00000000      3.99204395
    C     16.32176042     18.65439245     -0.00000000      4.06813727
    C     18.78643354     16.00090047      0.00000000      3.99203724
    C     18.78739618     17.22782297     -0.00000000      4.06815052
    C     17.54962012     11.26431062      0.00000000      3.93981308
    C     17.54791199      9.84184400      0.00000000      3.93979184
    C     18.77923045      9.12957866      0.00000000      3.93984066
    C     20.01199934      9.83937946      0.00000000      3.93981865
    C     20.01375142     11.26183928      0.00000000      3.93978200
    C     18.78241616     11.97406069     -0.00000000      3.93984382
    C     18.78385358     13.39997078     -0.00000000      4.06812838
    C     18.78511163     14.62687881      0.00000000      3.99206443
    C     21.24611657      9.12489662      0.00000000      4.06813965
    C     22.30859215      8.51125169     -0.00000000      3.99204443
    C     23.49810838      7.82333484      0.00000000      3.99203613
    C     24.56033895      7.20923932     -0.00000000      4.06814901
    C     21.24953434     11.97369767      0.00000000      4.06816026
    C     22.31273228     12.58621519     -0.00000000      3.99201623
    C     23.50347504     13.27222047     -0.00000000      3.99204334
    C     24.56660322     13.88485403      0.00000000      4.06814030
    C     27.03139587     11.23134816      0.00000000      3.99203784
    C     27.03223412     12.45827367     -0.00000000      4.06815066
    C     25.79447141      6.49475384     -0.00000000      3.93981203
    C     25.79277253      5.07229171      0.00000000      3.93979363
    C     27.02409317      4.36002594     -0.00000000      3.93984121
    C     28.25687311      5.06980876      0.00000000      3.93981731
    C     28.25860726      6.49227121     -0.00000000      3.93978366
    C     27.02726773      7.20449932      0.00000000      3.93984431
    C     27.02869257      8.63041368      0.00000000      4.06812992
    C     27.03007334      9.85732574      0.00000000      3.99206320
    C     29.49099875      4.35533047      0.00000000      4.06813981
    C     30.55347672      3.74170816     -0.00000000      3.99204154
    C     31.74299875      3.05378631     -0.00000000      3.99203762
    C     32.80520964      2.43964736     -0.00000000      4.06814816
    C     29.49439694      7.20414303     -0.00000000      4.06816504
    C     30.55760040      7.81665330      0.00000000      3.99201300
    C     31.74834456      8.50264796     -0.00000000      3.99204909
    C     32.81149224      9.11526906     -0.00000000      4.06813330
    C      2.30595448     35.06499493     -0.00000000      3.99203065
    C      2.30627796     36.29197050     -0.00000000      4.06815564
    C      1.06939914     30.32788686     -0.00000000      3.93981467
    C      1.06776857     28.90536804      0.00000000      3.93981400
    C      2.29898180     28.19289211     -0.00000000      3.93981387
    C      3.53169613     28.90271231      0.00000000      3.93981484
    C      3.53327950     30.32517669      0.00000000      3.93980616
    C      2.30213893     31.03778387      0.00000000      3.93982597
    C      2.30378753     32.46384898      0.00000000      4.06814373
    C      2.30493125     33.69083805     -0.00000000      3.99204552
    C      4.76594648     28.18841624      0.00000000      4.06814172
    C      5.82822175     27.57441769     -0.00000000      3.99203765
    C      7.01775017     26.88653531     -0.00000000      3.99204134
    C      8.08007558     26.27260752     -0.00000000      4.06814519
    C      4.76908947     31.03679343      0.00000000      4.06814445
    C      5.83226635     31.64924024     -0.00000000      3.99203905
    C      7.02278251     32.33549082     -0.00000000      3.99203778
    C      8.08543236     32.94884933     -0.00000000      4.06814542
    C     10.55088150     30.29542686     -0.00000000      3.99203099
    C     10.55112029     31.52240601     -0.00000000      4.06815529
    C      9.31429159     25.55829279     -0.00000000      3.93981432
    C      9.31266249     24.13577848      0.00000000      3.93981667
    C     10.54388493     23.42332499      0.00000000      3.93981404
    C     11.77659144     24.13315943      0.00000000      3.93981578
    C     11.77815621     25.55562746      0.00000000      3.93980551
    C     10.54700605     26.26821640      0.00000000      3.93982559
    C     10.54860935     27.69428048      0.00000000      4.06814470
    C     10.54985579     28.92127225     -0.00000000      3.99204416
    C     13.01081449     23.41884098      0.00000000      4.06814117
    C     14.07311564     22.80489110     -0.00000000      3.99203839
    C     15.26264402     22.11702364     -0.00000000      3.99204113
    C     16.32495824     21.50308898      0.00000000      4.06814371
    C     13.01395628     26.26724759      0.00000000      4.06814659
    C     14.07715659     26.87966583     -0.00000000      3.99203909
    C     15.26767334     27.56590718     -0.00000000      3.99203853
    C     16.33031627     28.17927304     -0.00000000      4.06814340
    C     18.79584948     25.52587758      0.00000000      3.99203160
    C     18.79603726     26.75285569     -0.00000000      4.06815501
    C     17.55915329     20.78874526      0.00000000      3.93981371
    C     17.55752749     19.36622818      0.00000000      3.93981636
    C     18.78874735     18.65377564      0.00000000      3.93981248
    C     20.02144124     19.36361354     -0.00000000      3.93981468
    C     20.02300400     20.78607038     -0.00000000      3.93980417
    C     18.79186714     21.49866451     -0.00000000      3.93982435
    C     18.79352562     22.92472891     -0.00000000      4.06814413
    C     18.79482440     24.15171910      0.00000000      3.99204499
    C     21.25567632     18.64931547      0.00000000      4.06813953
    C     22.31799171     18.03539604     -0.00000000      3.99203931
    C     23.50751821     17.34751885     -0.00000000      3.99204026
    C     24.56979896     16.73351798     -0.00000000      4.06814525
    C     21.25881427     21.49766936     -0.00000000      4.06814497
    C     22.32202868     22.11005959      0.00000000      3.99204025
    C     23.51254620     22.79630800      0.00000000      3.99203790
    C     24.57516188     23.40973456     -0.00000000      4.06814654
    C     27.04081214     20.75632653      0.00000000      3.99203209
    C     27.04087809     21.98330682     -0.00000000      4.06815530
    C     25.80400253     16.01918764     -0.00000000      3.93981267
    C     25.80238613     14.59667504     -0.00000000      3.93981818
    C     27.03360827     13.88422192     -0.00000000      3.93981310
    C     28.26631362     14.59404195     -0.00000000      3.93981333
    C     28.26785811     16.01650187     -0.00000000      3.93980571
    C     27.03671648     16.72910290     -0.00000000      3.93982501
    C     27.03836278     18.15517195      0.00000000      4.06814553
    C     27.03978530     19.38216624     -0.00000000      3.99204394
    C     29.50055751     13.87974921     -0.00000000      4.06813973
    C     30.56287725     13.26585157      0.00000000      3.99203649
    C     31.75240862     12.57796969      0.00000000      3.99204166
    C     32.81467208     11.96392664      0.00000000      4.06814446
    C     29.50367222     16.72811332      0.00000000      4.06814859
    C     30.56689118     17.34049863      0.00000000      3.99203934
    C     31.75741556     18.02674108      0.00000000      3.99204174
    C     32.82003830     18.64014605     -0.00000000      4.06813993
