   18
Geometry Step: 0
    C      2.27841300      6.49106300      0.00000000      3.99204221
    C      2.27777100      7.71798000      0.00000000      4.06816148
    C      1.04021400      1.75496200     -0.00000000      3.93981065
    C      1.03822600      0.33252900     -0.00000000      3.93980747
    C      2.26943400     -0.38002700      0.00000000      3.93987498
    C      3.50238600      0.32954200      0.00000000      3.93981538
    C      3.50441500      1.75196400     -0.00000000      3.93976079
    C      2.27320900      2.46438900      0.00000000      3.93982552
    C      2.27505700      3.89021200     -0.00000000      4.06813386
    C      2.27727800      5.11707200     -0.00000000      3.99206369
    C      4.73660900     -0.38474600      0.00000000      4.06813273
    C      5.80109700     -0.99491400     -0.00000000      3.99205236
    C      6.99060600     -1.68290500     -0.00000000      3.99203476
    C      8.05107600     -2.30000600      0.00000000      4.06814576
    C      4.74017000      2.46379500      0.00000000      4.06814605
    C      5.80197500      3.07868700      0.00000000      3.99202529
    C      6.99266700      3.76479700      0.00000000      3.99204247
    C      8.05670600      4.37582000     -0.00000000      4.06812454
