  324
Geometry Step: 20
    C      0.28450404      1.90326869      0.23996494      3.94043903
    C      0.28511851      0.48068347      0.24004043      3.94043311
    C      1.51747418     -0.23014915      0.23987433      3.94044609
    C      2.74922024      0.48169169      0.24030938      3.94049345
    C      2.74850433      1.90440727      0.24043822      3.94050525
    C      1.51616636      2.61524786      0.23991118      3.94048489
    C      3.98431537     -0.23148404      0.24013585      4.06525308
    C      5.04730605     -0.84983916      0.23991550      3.99341555
    C      6.23121191     -1.53618457      0.23982953      3.99877130
    C      7.30120658     -2.15739112      0.23986146      4.00160368
    C      8.48112689     -2.84017548      0.23990189      4.00049634
    C      9.55384824     -3.46022420      0.24001835      4.00050290
    C     10.73530027     -4.14023762      0.24027483      4.00158409
    C     11.80908478     -4.75477265      0.24065314      3.99878000
    C     12.99598357     -5.43577539      0.24096781      3.99338900
    C     14.06319288     -6.04678981      0.24124427      4.06526703
    C      3.98329032      2.61790754      0.24124939      4.06525756
    C      5.04863962      3.23206823      0.24232459      3.99341402
    C      6.23360465      3.91624096      0.24325465      3.99877767
    C      7.30482863      4.53509691      0.24420420      4.00159213
    C      8.48488418      5.21722806      0.24462818      4.00050698
    C      9.55724705      5.83767250      0.24461307      4.00049394
    C     10.73715239      6.51997403      0.24430635      4.00160370
    C     11.80808884      7.13923127      0.24360810      3.99875872
    C     12.99269774      7.82376904      0.24291160      3.99344328
    C     14.05757788      8.43860281      0.24202883      4.06522747
    C      1.51442388      4.04145346      0.23981779      4.06526029
    C      1.50564868      5.27115908      0.23877321      3.99340607
    C      1.49992888      6.63954879      0.23798080      3.99877366
    C      1.49392703      7.87672909      0.23738383      4.00159488
    C      1.49071299      9.23985210      0.23710827      4.00049478
    C      1.48982696     10.47882758      0.23712329      4.00050053
    C      1.49173778     11.84190521      0.23738950      4.00158193
    C      1.49769600     13.07903781      0.23791873      3.99877687
    C      1.50244852     14.44732808      0.23865636      3.99339086
    C      1.50990025     15.67701402      0.23962486      4.06526152
    C      0.27704139     19.23671700      0.23973405      3.94044224
    C      0.27785522     17.81408125      0.23992244      3.94044954
    C      1.51017327     17.10316922      0.23975540      3.94043500
    C      2.74179905     17.81519210      0.24007475      3.94050095
    C      2.74102856     19.23791962      0.24032232      3.94051726
    C      1.50868432     19.94873696      0.23979763      3.94047784
    C      3.97690311     17.10205181      0.24004647      4.06525236
    C      5.03973521     16.48344548      0.23974922      3.99342062
    C      6.22357456     15.79704442      0.23962354      3.99876488
    C      7.29355542     15.17584863      0.23967786      4.00160664
    C      8.47344877     14.49307976      0.23972271      4.00048718
    C      9.54615971     13.87303216      0.23983920      4.00050890
    C     10.72761635     13.19301541      0.24009127      4.00157681
    C     11.80142193     12.57849564      0.24044719      3.99878862
    C     12.98837106     11.89753520      0.24080130      3.99337994
    C     14.05564363     11.28658527      0.24115475      4.06528007
    C      3.97576167     19.95142171      0.24103448      4.06525040
    C      5.04114638     20.56545761      0.24211903      3.99341538
    C      6.22606735     21.24956581      0.24305466      3.99877223
    C      7.29727155     21.86840001      0.24403145      4.00159386
    C      8.47730097     22.55051868      0.24445391      4.00050398
    C      9.54966024     23.17096864      0.24443170      4.00049856
    C     10.72958159     23.85328005      0.24412427      4.00160557
    C     11.80053143     24.47254100      0.24342692      3.99876072
    C     12.98515634     25.15709300      0.24273073      3.99344561
    C     14.05002663     25.77195709      0.24184775      4.06522722
    C      1.50689483     21.37490205      0.23960467      4.06525653
    C      1.49802503     22.60458706      0.23856734      3.99340412
    C      1.49227715     23.97294185      0.23777989      3.99877310
    C      1.48625860     25.21011006      0.23721035      4.00159285
    C      1.48304853     26.57322240      0.23693368      4.00049470
    C      1.48216987     27.81219610      0.23694172      4.00049997
    C      1.48408187     29.17528073      0.23720730      4.00158391
    C      1.49003676     30.41241698      0.23773763      3.99877556
    C      1.49479367     31.78071242      0.23847559      3.99339241
    C      1.50227872     33.01039879      0.23944394      4.06525777
    C      0.26946788     36.57010241      0.23955308      3.94044347
    C      0.27029026     35.14747312      0.23974145      3.94044915
    C      1.50258224     34.43655074      0.23957445      3.94043123
    C      2.73418886     35.14856870      0.23989386      3.94049812
    C      2.73339715     36.57129448      0.24014112      3.94052025
    C      1.50108157     37.28215102      0.23961633      3.94046677
    C      3.96925715     34.43535997      0.23986551      4.06525175
    C      5.03206965     33.81671314      0.23956822      3.99342088
    C      6.21590708     33.13029896      0.23944253      3.99876512
    C      7.28589410     32.50910758      0.23949686      4.00160774
    C      8.46579309     31.82633614      0.23954171      4.00048867
    C      9.53850577     31.20628815      0.23965821      4.00050896
    C     10.71996832     30.52626704      0.23991027      4.00157975
    C     11.79377267     29.91173975      0.24026619      3.99878710
    C     12.98073218     29.23078769      0.24062030      3.99338322
    C     14.04802296     28.61987532      0.24097372      4.06527668
    C      3.96816647     37.28472797      0.24085329      4.06524353
    C      5.03357911     37.89876814      0.24193785      3.99342681
    C      6.21854828     38.58289777      0.24287705      3.99876616
    C      7.28978263     39.20175533      0.24385391      4.00160398
    C      8.46987405     39.88390626      0.24426663      4.00049964
    C      9.54226160     40.50434628      0.24421903      4.00050251
    C     10.72222364     41.18668777      0.24392462      4.00160061
    C     11.79314917     41.80602143      0.24328577      3.99876414
    C     12.97780175     42.49058842      0.24260369      3.99343172
    C     14.04275519     43.10539831      0.24171753      4.06524105
    C      1.49925272     38.70828223      0.23942301      4.06525263
    C      1.49037236     39.93798433      0.23838618      3.99340479
    C      1.48461674     41.30633535      0.23760233      3.99877403
    C      1.47860505     42.54351929      0.23703321      4.00159300
    C      1.47539297     43.90667425      0.23674698      4.00050719
    C      1.47450441     45.14567132      0.23672996      4.00049431
    C      1.47641409     46.50874132      0.23700871      4.00159177
    C      1.48236680     47.74584557      0.23759673      3.99876265
    C      1.48722378     49.11406432      0.23834928      3.99340229
    C      1.49503919     50.34370007      0.23931498      4.06525150
    C     15.29893050     -6.75888543      0.24170357      3.94041712
    C     15.29954648     -8.18147994      0.24176939      3.94045411
    C     16.53166268     -8.89276420      0.24162647      3.94045942
    C     17.76366662     -8.18133145      0.24201014      3.94046748
    C     17.76308940     -6.75858168      0.24214286      3.94052629
    C     16.53089318     -6.04740012      0.24167594      3.94048790
    C     18.99868342     -8.89475524      0.24187633      4.06526587
    C     20.06184679     -9.51285985      0.24176929      3.99339709
    C     21.24580456    -10.19917599      0.24170747      3.99877886
    C     22.31582361    -10.82036869      0.24159622      4.00159359
    C     23.49576538    -11.50317701      0.24163296      4.00050118
    C     24.56849983    -12.12324344      0.24178034      4.00049699
    C     25.74999123    -12.80328149      0.24204303      4.00159084
    C     26.82379798    -13.41782764      0.24241693      3.99877505
    C     28.01073507    -14.09885423      0.24272976      3.99339728
    C     29.07794878    -14.70988685      0.24300670      4.06526522
    C     18.99792163     -6.04516786      0.24299057      4.06525355
    C     20.06333687     -5.43112985      0.24417753      3.99342292
    C     21.24832972     -4.74701234      0.24513186      3.99877271
    C     22.31955062     -4.12815412      0.24593834      4.00159731
    C     23.49960245     -3.44601776      0.24635849      4.00050204
    C     24.57196636     -2.82556563      0.24637490      4.00049947
    C     25.75188196     -2.14325829      0.24607459      4.00159918
    C     26.82282898     -1.52399890      0.24537215      3.99876524
    C     28.00745371     -0.83944734      0.24467374      3.99343979
    C     29.07231708     -0.22458026      0.24379128      4.06523387
    C     16.52950919     -4.62122652      0.24131768      4.06525580
    C     16.52049697     -3.39153910      0.24048350      3.99341112
    C     16.51483698     -2.02317368      0.23980844      3.99877096
    C     16.50879507     -0.78600499      0.23916059      4.00159622
    C     16.50559426      0.57709973      0.23887126      4.00049230
    C     16.50472562      1.81607248      0.23888598      4.00050293
    C     16.50666216      3.17914893      0.23916710      4.00157853
    C     16.51258816      4.41629025      0.23974761      3.99878247
    C     16.51713497      5.78461932      0.24036772      3.99338684
    C     16.52355592      7.01433348      0.24112261      4.06527126
    C     15.29146852     10.57456402      0.24146968      3.94041995
    C     15.29228302      9.15191864      0.24165844      3.94047206
    C     16.52436047      8.44055327      0.24151590      3.94044726
    C     17.75624372      9.15216682      0.24177650      3.94047502
    C     17.75561308     10.57492951      0.24202429      3.94053836
    C     16.52341176     11.28608937      0.24155758      3.94048072
    C     18.99127014      8.43877924      0.24178703      4.06526541
    C     20.05427617      7.82042446      0.24160287      3.99340197
    C     21.23816653      7.13405317      0.24150157      3.99877240
    C     22.30817235      6.51287109      0.24141264      4.00159669
    C     23.48808676      5.83007790      0.24145379      4.00049192
    C     24.56081074      5.21001361      0.24160118      4.00050288
    C     25.74230704      4.52997223      0.24185947      4.00158378
    C     26.81613527      3.91544047      0.24221099      3.99878359
    C     28.00312253      3.23445623      0.24256326      3.99338825
    C     29.07040048      2.62348833      0.24291722      4.06527836
    C     18.99039261     11.28834597      0.24277589      4.06524655
    C     20.05584267     11.90225909      0.24397190      3.99342415
    C     21.24079216     12.58631234      0.24493189      3.99876745
    C     22.31199280     13.20514862      0.24576552      4.00159873
    C     23.49201806     13.88727237      0.24618463      4.00049922
    C     24.56437918     14.50773051      0.24619353      4.00050418
    C     25.74431039     15.19004818      0.24589241      4.00160092
    C     26.81527063     15.80931071      0.24519096      3.99876727
    C     27.99991217     16.49387699      0.24449287      3.99344224
    C     29.06476567     17.10877418      0.24361021      4.06523348
    C     16.52197935     12.71222161      0.24110303      4.06525198
    C     16.51287329     13.94188853      0.24027742      3.99340915
    C     16.50718539     15.31021834      0.23960796      3.99877030
    C     16.50112677     16.54737487      0.23898713      4.00159425
    C     16.49792945     17.91046951      0.23869664      4.00049226
    C     16.49706865     19.14944024      0.23870441      4.00050227
    C     16.49900526     20.51252436      0.23898490      4.00158069
    C     16.50492872     21.74966971      0.23956652      3.99878109
    C     16.50947972     23.11800426      0.24018695      3.99338854
    C     16.51593550     24.34771878      0.24094168      4.06526743
    C     15.28389377     27.90794913      0.24128873      3.94042103
    C     15.28471575     26.48531031      0.24147746      3.94047149
    C     16.51676770     25.77393520      0.24133495      3.94044368
    C     17.74863286     26.48554258      0.24159564      3.94047221
    C     17.74798128     27.90830406      0.24184311      3.94054148
    C     16.51580779     28.61950351      0.24137629      3.94046979
    C     18.98362468     25.77208755      0.24160605      4.06526486
    C     20.04661109     25.15369171      0.24142187      3.99340215
    C     21.23049931     24.46730735      0.24132056      3.99877266
    C     22.30051091     23.84612931      0.24123164      4.00159783
    C     23.48043123     23.16333400      0.24127279      4.00049339
    C     24.55315628     22.54326959      0.24142019      4.00050287
    C     25.73465900     21.86322383      0.24167847      4.00158688
    C     26.80848618     21.24868442      0.24202999      3.99878210
    C     27.99548495     20.56770840      0.24238227      3.99339167
    C     29.06278072     19.95677759      0.24273619      4.06527494
    C     18.98279788     28.62165200      0.24259462      4.06523981
    C     20.04827672     29.23557019      0.24379073      3.99343555
    C     21.23327388     29.91964426      0.24475428      3.99876121
    C     22.30450453     30.53850417      0.24558799      4.00160896
    C     23.48459130     31.22066036      0.24599735      4.00049472
    C     24.55697981     31.84110864      0.24598086      4.00050811
    C     25.73695150     32.52345605      0.24569277      4.00159589
    C     26.80788710     33.14279141      0.24504981      3.99877066
    C     27.99255518     33.82737330      0.24436582      3.99342825
    C     29.05749304     34.44221555      0.24347996      4.06524757
    C     16.51433829     30.04560281      0.24092138      4.06524828
    C     16.50522063     31.27528659      0.24009624      3.99340953
    C     16.49952431     32.64361170      0.23943038      3.99877124
    C     16.49347349     33.88078480      0.23880999      4.00159474
    C     16.49027400     35.24392199      0.23850993      4.00050455
    C     16.48940332     36.48291458      0.23849261      4.00049636
    C     16.49133768     37.84598430      0.23878633      4.00158887
    C     16.49725949     39.08309944      0.23942600      3.99876846
    C     16.50191072     40.45135839      0.24006036      3.99339831
    C     16.50869613     41.68102085      0.24081099      4.06526064
    C     30.31368974    -15.42201228      0.24346587      3.94043319
    C     30.31426133    -16.84462265      0.24353171      3.94044574
    C     31.54633961    -17.55591163      0.24338907      3.94045246
    C     32.77821954    -16.84434818      0.24377405      3.94047054
    C     32.77779847    -15.42164174      0.24390675      3.94052423
    C     31.54563573    -14.71048726      0.24343811      3.94047770
    C     34.01316324    -17.55767714      0.24364081      4.06525940
    C     35.07628808    -18.17576172      0.24352976      3.99340883
    C     36.26016240    -18.86202420      0.24345507      3.99877934
    C     37.33013338    -19.48319130      0.24334859      4.00159384
    C     38.50997570    -20.16593959      0.24343036      4.00050375
    C     39.58263422    -20.78598622      0.24365651      4.00049290
    C     40.76400685    -21.46597815      0.24385634      4.00159821
    C     41.83770051    -22.08057555      0.24398050      3.99876504
    C     43.02467143    -22.76125478      0.24431899      3.99341487
    C     44.09227575    -23.37146280      0.24475884      4.06524585
    C     34.01273347    -14.70834491      0.24475494      4.06525072
    C     35.07815697    -14.09430715      0.24593841      3.99342193
    C     36.26320174    -13.41016598      0.24687964      3.99877029
    C     37.33445242    -12.79127815      0.24769123      4.00160319
    C     38.51458039    -12.10910046      0.24815652      4.00049783
    C     39.58701277    -11.48869002      0.24825233      4.00050348
    C     40.76701174    -10.80635858      0.24788911      4.00159365
    C     41.83798842    -10.18707821      0.24693660      3.99877193
    C     43.02243664     -9.50207806      0.24626367      3.99341924
    C     44.08667595     -8.88604548      0.24554407      4.06525348
    C     31.54434325    -13.28434168      0.24308026      4.06525267
    C     31.53536948    -12.05466319      0.24224617      3.99341098
    C     31.52971659    -10.68631070      0.24157075      3.99876954
    C     31.52367052     -9.44914682      0.24092328      4.00159567
    C     31.52046912     -8.08604584      0.24063381      4.00049087
    C     31.51960093     -6.84707557      0.24064847      4.00050283
    C     31.52153756     -5.48400007      0.24092976      4.00157599
    C     31.52746866     -4.24685986      0.24151014      3.99878367
    C     31.53200543     -2.87853103      0.24213054      3.99338150
    C     31.53841091     -1.64881665      0.24288496      4.06527069
    C     30.30622821      1.91143626      0.24323197      3.94043590
    C     30.30699836      0.48877570      0.24342076      3.94046352
    C     31.53903707     -0.22259389      0.24327849      3.94044027
    C     32.77079588      0.48915082      0.24354036      3.94047818
    C     32.77032107      1.91186965      0.24378805      3.94053604
    C     31.53815379      2.62300185      0.24331967      3.94047046
    C     34.00575051     -0.22414199      0.24355142      4.06525917
    C     35.06871783     -0.84247662      0.24336331      3.99341376
    C     36.25252555     -1.52879498      0.24324916      3.99877290
    C     37.32248251     -2.14995031      0.24316501      4.00159680
    C     38.50229697     -2.83268409      0.24325120      4.00049453
    C     39.57494461     -3.45272791      0.24347738      4.00049876
    C     40.75632136     -4.13272447      0.24367279      4.00159113
    C     41.83003691     -4.74730616      0.24377431      3.99877374
    C     43.01705890     -5.42794352      0.24415255      3.99340582
    C     44.08472485     -6.03808943      0.24466984      4.06525890
    C     34.00520321      2.62516841      0.24454005      4.06524371
    C     35.07066274      3.23908117      0.24573270      3.99342309
    C     36.25566357      3.92315777      0.24667953      3.99876509
    C     37.32689536      4.54202584      0.24751830      4.00160491
    C     38.50699713      5.22418980      0.24798229      4.00049485
    C     39.57942566      5.84460733      0.24807104      4.00050796
    C     40.75944019      6.52694713      0.24770707      4.00159549
    C     41.83043064      7.14623292      0.24675541      3.99877422
    C     43.01489589      7.83124627      0.24608278      3.99342117
    C     44.07912490      8.44730805      0.24536299      4.06525371
    C     31.53681283      4.04910636      0.24286552      4.06524893
    C     31.52774505      5.27876418      0.24204008      3.99340894
    C     31.52206467      6.64708139      0.24137028      3.99876893
    C     31.51600245      7.88423328      0.24074983      4.00159380
    C     31.51280412      9.24732461      0.24045919      4.00049086
    C     31.51194341     10.48629226      0.24046690      4.00050209
    C     31.51388059     11.84937540      0.24074756      4.00157832
    C     31.51980942     13.08651937      0.24132905      3.99878216
    C     31.52435033     14.45485331      0.24194977      3.99338321
    C     31.53079063     15.68456852      0.24270403      4.06526687
    C     30.29865558     19.24482151      0.24305102      3.94043707
    C     30.29943146     17.82216789      0.24323979      3.94046299
    C     31.53144483     17.11078865      0.24309754      3.94043683
    C     32.76318516     17.82252865      0.24335950      3.94047548
    C     32.76269108     19.24524564      0.24360688      3.94053823
    C     31.53055171     19.95641570      0.24313838      3.94045947
    C     33.99810275     17.10916727      0.24337044      4.06525833
    C     35.06105286     16.49079030      0.24318232      3.99341461
    C     36.24485845     15.80445975      0.24306815      3.99877262
    C     37.31482136     15.18330865      0.24298401      4.00159829
    C     38.49464265     14.50057223      0.24307020      4.00049601
    C     39.56729017     13.88052690      0.24329639      4.00049870
    C     40.74867316     13.20052723      0.24349179      4.00159401
    C     41.82238712     12.58593754      0.24359332      3.99877249
    C     43.00942012     11.90530846      0.24397155      3.99340876
    C     44.07710460     11.29520270      0.24448881      4.06525581
    C     33.99760588     19.95847291      0.24435878      4.06523641
    C     35.06309865     20.57239449      0.24555154      3.99343544
    C     36.24814392     21.25649012      0.24650192      3.99875777
    C     37.31940547     21.87537935      0.24734079      4.00161542
    C     38.49957024     22.55757652      0.24779502      4.00049092
    C     39.57202706     23.17798332      0.24785838      4.00051153
    C     40.75208064     23.86035319      0.24750735      4.00159005
    C     41.82304838     24.47971028      0.24661396      3.99877946
    C     43.00754555     25.16474381      0.24595599      3.99340567
    C     44.07184411     25.78074882      0.24523269      4.06526772
    C     31.52917094     21.38248552      0.24268387      4.06524485
    C     31.52009242     22.61216196      0.24185890      3.99340997
    C     31.51440374     23.98047476      0.24119270      3.99876940
    C     31.50834906     25.21764285      0.24057269      4.00159463
    C     31.50514867     26.58077878      0.24027248      4.00050316
    C     31.50427814     27.81976749      0.24025511      4.00049613
    C     31.50621305     29.18283707      0.24054900      4.00158663
    C     31.51213998     30.41995019      0.24118853      3.99876929
    C     31.51678123     31.78820697      0.24182316      3.99339297
    C     31.52355147     33.01787064      0.24257330      4.06526026
