  192
Geometry Step: 14
    C     18.02745211     -4.10620101      0.02768991      3.93806232
    C      7.26225235     18.79963240      0.02522184      4.06194556
    C      7.26102663     20.01867654      0.02647077      4.06193788
    C      9.73169419     17.37403407      0.01975107      4.06194225
    C     10.78715614     17.98393738      0.01754793      4.06195221
    C      9.73228489     14.52252276      0.01789558      4.06194057
    C     10.78819129     13.91327526      0.01568879      4.06192901
    C     12.02888422     13.19731969      0.01346230      3.93805116
    C     12.02930825     11.77832233      0.01277359      3.93807122
    C     13.25829058     11.06897152      0.01064163      3.93805945
    C     14.48704423     11.77862827      0.00956749      3.93804484
    C     14.48656597     13.19760267      0.01036076      3.93807907
    C     13.25763126     13.90700467      0.01211297      3.93805322
    C     13.25739134     15.33942247      0.01303055      4.06194527
    C      6.03535716      9.73541283      0.01602644      3.93805301
    C     13.25669223     16.55846297      0.01450041      4.06193357
    C      6.03570221      8.31643109      0.01346275      3.93807667
    C      7.26471353      7.60716614      0.01113433      3.93805393
    C      8.49348879      8.31683777      0.01155754      3.93805348
    C      8.49303855      9.73585630      0.01424487      3.93807308
    C      7.26404814     10.44521793      0.01643580      3.93805561
    C      7.26361381     11.87768448      0.01863171      4.06194409
    C      7.26284586     13.09674441      0.01975131      4.06193626
    C      9.73332745     10.45232045      0.01434179      4.06194782
    C     10.78899624     11.06188693      0.01389200      4.06194794
    C      9.73414300      7.60076060      0.00935962      4.06194098
    C     10.78971413      6.99092991      0.00774131      4.06193516
    C      0.03993655     13.19452632      0.01438980      3.93806521
    C      0.04099149     11.77556674      0.01680564      3.93806389
    C      1.27037757     11.06703194      0.01830457      3.93805356
    C      2.49870423     11.77742335      0.01837277      3.93806179
    C      2.49755021     13.19640410      0.01748768      3.93806114
    C      1.26819469     13.90506160      0.01490768      3.93805455
    C      1.26730160     15.33749675      0.01353600      4.06193945
    C      1.26882273     16.55654310      0.01290663      4.06193306
    C      3.73756680     13.91329238      0.01879718      4.06194355
    C     18.02744403     -5.52518519      0.03010565      3.93806374
    C      4.79341302     14.52252769      0.02107186      4.06194549
    C      3.73961234     11.06192633      0.01876438      4.06194196
    C      4.79475951     10.45142317      0.01777037      4.06193560
    C     19.25662433     -1.96449942      0.02182245      4.06194443
    C     19.25639827     -3.39686536      0.02656364      3.93805905
    C      6.03369942     16.65766637      0.02365489      3.93804394
    C      6.03386924     15.23869608      0.02214252      3.93807490
    C      7.26275946     14.52917658      0.02095254      3.93806256
    C      8.49165816     15.23865415      0.02019335      3.93805122
    C      0.03664121     27.03871400      0.00890736      3.93805798
    C      0.03739838     25.61976300      0.01097877      3.93805800
    C      1.26661228     24.91086098      0.01476561      3.93806260
    C      2.49510416     25.62102933      0.01597004      3.93806395
    C      2.49432067     27.03999474      0.01269271      3.93806172
    C      1.26509687     27.74883604      0.00964392      3.93805433
    C      1.26440410     29.18119107      0.00773456      4.06194028
    C      1.26470088     30.40020302      0.00718038      4.06193521
    C      3.73447344     27.75674226      0.01203817      4.06195103
    C      4.78986848     28.36679819      0.01040198      4.06193460
    C      3.73601941     24.90558880      0.01964129      4.06193767
    C      4.79164066     24.29592457      0.02289809      4.06193626
    C      6.03205234     23.57959551      0.02424388      3.93804399
    C      6.03207031     22.16063377      0.02647493      3.93806673
    C      7.26095897     21.45108461      0.02589624      3.93806909
    C      8.48992147     22.16049338      0.02311803      3.93805425
    C      8.48980255     23.57949035      0.02101131      3.93806878
    C      7.26092759     24.28901125      0.02150410      3.93806030
    C      7.26059741     25.72139674      0.01791051      4.06194393
    C      7.25856444     26.94041056      0.01351109      4.06193935
    C      9.73020997     24.29577359      0.01743887      4.06195469
    C     10.78541232     24.90615153      0.01416116      4.06193591
    C      9.73060013     21.44446090      0.02148577      4.06193896
    C     10.78664135     20.83544943      0.01931034      4.06193121
    C     12.02721504     20.11928031      0.01807623      3.93804978
    C     12.02750105     18.70028752      0.01703472      3.93806571
    C     13.25644886     17.99086590      0.01616574      3.93806404
    C     14.48526182     18.70044805      0.01744125      3.93804814
    C     14.48496343     20.11941544      0.01883280      3.93807413
    C     13.25603593     20.82882464      0.01842677      3.93805733
    C     13.25579295     22.26120118      0.01793257      4.06194818
    C     13.25429403     23.48021568      0.01590812      4.06193329
    C      0.03836318     20.11681196      0.01093561      3.93805988
    C      0.03918419     18.69786297      0.00932060      3.93806463
    C      1.26836445     17.98894990      0.01360863      3.93805333
    C      2.49679956     18.69913098      0.01920426      3.93806212
    C      2.49590339     20.11810024      0.02074026      3.93806702
    C      1.26674330     20.82701634      0.01667296      3.93804717
    C      1.26609893     22.25941892      0.01739826      4.06194018
    C      1.26712263     23.47845689      0.01677062      4.06193458
    C      3.73594926     20.83490162      0.02489283      4.06193402
    C      4.79154832     21.44456204      0.02700164      4.06195313
    C      3.73765408     17.98360955      0.02215582      4.06193712
    C      4.79319038     17.37380291      0.02379536      4.06193442
    C     15.72533575     20.83572996      0.02040449      4.06194845
    C     16.78076304     21.44570958      0.02212777      4.06194198
    C     15.72595534     17.98452281      0.01735874      4.06193771
    C     16.78179338     17.37518776      0.01703056      4.06193366
    C     21.72546137     -6.24181708      0.03048364      4.06193968
    C     12.03226935     -0.64591872      0.01444007      3.93804569
    C     22.78153021     -2.78123448      0.02592180      4.06194913
    C     12.03218261     -2.06488539      0.01900377      3.93807001
    C     15.72684179     13.91397921      0.01012352      4.06193464
    C     16.78236771     14.52374006      0.01122353      4.06195497
    C     15.72771588     11.06266685      0.00796319      4.06194318
    C     16.78335791     10.45300227      0.00675907      4.06192722
    C     18.02404019      9.73710936      0.00670575      3.93805955
    C     18.02450246      8.31811735      0.00490445      3.93806610
    C     19.25349878      7.60884681      0.00573535      3.93805543
    C     20.48214641      8.31863544      0.00942325      3.93805072
    C     20.48168576      9.73760467      0.01090600      3.93807615
    C     19.25271491     10.44691130      0.00908221      3.93804931
    C     19.25244370     11.87932188      0.01013834      4.06194501
    C     19.25207593     13.09835946      0.01052351      4.06193151
    C     21.72196604     10.45401295      0.01435675      4.06193770
    C     22.77774985     11.06335500      0.01737740      4.06195125
    C     21.72272855      7.60264081      0.01218002      4.06194424
    C     22.77812682      6.99262617      0.01564692      4.06192959
    C     20.48515279     -4.10652320      0.02848913      3.93806873
    C     20.48510145     -5.52548991      0.03046780      3.93804746
    C     13.26089015     -2.77465338      0.02042267      3.93806708
    C     14.48995962     -2.06558951      0.01760791      3.93803693
    C     14.49003500     -0.64664147      0.01235572      3.93807232
    C     13.26134467      0.06318615      0.01070669      3.93806757
    C     13.26166968      1.49555208      0.00641399      4.06194101
    C     13.26078066      2.71457426      0.00343708      4.06193862
    C     15.73056406      0.06934733      0.00918143      4.06193122
    C     16.78612351      0.67908586      0.00663846      4.06195655
    C     15.73041088     -2.78190880      0.02089364      4.06194061
    C     16.78692439     -3.39005106      0.02497205      4.06192577
    C      6.03721842      2.81443470      0.01289933      3.93804606
    C      6.03681048      1.39549606      0.01656514      3.93807106
    C      7.26539844      0.68555371      0.01760882      3.93806581
    C      8.49457954      1.39447302      0.01408670      3.93805079
    C     12.03046480      6.27507056      0.00553616      3.93805780
    C     12.03108257      4.85604740      0.00443534      3.93807461
    C     13.26020449      4.14695356      0.00252290      3.93805143
    C     14.48884423      4.85681895      0.00112279      3.93804829
    C     14.48817847      6.27581733      0.00246909      3.93807637
    C     13.25910061      6.98502920      0.00490706      3.93805708
    C     13.25874049      8.41749328      0.00703211      4.06194610
    C     13.25853574      9.63654888      0.00927610      4.06193217
    C     15.72843503      6.99231853      0.00235313      4.06194319
    C     16.78425642      7.60160399      0.00299641      4.06195118
    C     15.72957573      4.14089420     -0.00029709      4.06194608
    C     16.78487862      3.53061048     -0.00054223      4.06193412
    C     18.02565799      2.81482941      0.00181011      3.93806798
    C     18.02627508      1.39582267      0.00562211      3.93806373
    C     19.25543468      0.68686416      0.01027145      3.93805262
    C     20.48399550      1.39683678      0.01041347      3.93805284
    C     20.48337495      2.81581659      0.00669158      3.93806916
    C     19.25424216      3.52489554      0.00265717      3.93805739
    C     19.25379308      4.95735986      0.00174253      4.06194499
    C     19.25390775      6.17641666      0.00374222      4.06193214
    C     21.72360060      3.53238480      0.00899916      4.06194662
    C     22.77956059      4.14143157      0.01274485      4.06194118
    C     21.72461158      0.68089351      0.01528972      4.06194722
    C     22.77955657      0.07009397      0.01950427      4.06193239
    C     19.25619519     -6.23481658      0.03115031      3.93805821
    C      8.49492758      2.81345229      0.01064602      3.93806309
    C      7.26633487      3.52342550      0.01042918      3.93806308
    C      7.26657922      4.95578494      0.00884929      4.06193905
    C      7.26506133      6.17480384      0.00924062      4.06193824
    C      9.73550112      3.52936483      0.00807735      4.06194069
    C     10.79092945      4.13933243      0.00607631      4.06194754
    C      9.73493803      0.67796661      0.01437784      4.06193009
    C     10.79174400      0.07029941      0.01400154      4.06193442
    C      0.04178304      6.27355891      0.01877823      3.93805971
    C      0.04211110      4.85462227      0.01782186      3.93806432
    C      1.27105370      4.14533599      0.01563133      3.93805927
    C      2.49979050      4.85500360      0.01461425      3.93805943
    C      2.49942358      6.27397795      0.01523195      3.93805938
    C      1.27046996      6.98329729      0.01753169      3.93805760
    C      1.27032592      8.41566315      0.01822012      4.06194414
    C      1.27113994      9.63468083      0.01889284      4.06193133
    C      3.73973471      6.99038303      0.01440890      4.06193821
    C      4.79535267      7.60003402      0.01353073      4.06194964
    C      3.74044856      4.13912146      0.01349279      4.06193657
    C      4.79684269      3.53079339      0.01278869      4.06193440
    C     18.02236107     16.65905094      0.01623120      3.93805683
    C     18.02268015     15.24007786      0.01317053      3.93805669
    C     19.25165944     14.53075664      0.01255255      3.93806392
    C     20.48038199     15.24045718      0.01458574      3.93805182
    C     20.48013229     16.65939525      0.01735143      3.93806746
    C     19.25114487     17.36865326      0.01852232      3.93806055
    C     19.25089026     18.80101132      0.02129977      4.06193933
    C     19.24978651     20.02002606      0.02339272      4.06194028
    C     21.72050451     17.37576438      0.01852876      4.06195202
    C     22.77600758     17.98562175      0.01819955      4.06193106
    C     21.72100006     14.52456151      0.01438550      4.06193935
    C     22.77644933     13.91463140      0.01506194      4.06193403
    C     21.72559751     -3.39035028      0.02699419      4.06193552
    C      7.26250680     17.36720519      0.02369041      3.93805352
    C     22.78162910     -6.85049485      0.02865791      4.06193093
    C     19.25608475     -0.74549167      0.01593816      4.06193108
    C      8.49137399     16.65766728      0.02133848      3.93807630
