   12
Geometry Step: 0
    C      0.00038500      1.41547800      0.00202300      3.93282608
    C      0.00000000      0.00000000      0.00000000      3.93242114
    C      1.22628900     -0.70695800      0.00387800      3.93255205
    C      2.45206800      0.00089400      0.00836600      3.93250904
    C      2.45195300      1.41638300      0.01068100      3.93266981
    C      1.22589800      2.12380300      0.00816600      3.93262124
    C      1.22552400      3.51826300      0.01076500      4.06712298
    C      1.22543200      4.84803100      0.01275100      4.06768658
    C      3.65932800      2.11391200      0.01448300      4.06723899
    C      4.81067400      2.77913900      0.01645200      4.06736586
    C      3.65971800     -0.69625100      0.00992700      4.06703954
    C      4.81136800     -1.36099600      0.01035800      4.06794669
   12
Geometry Step: 1
    C      0.00360988      1.41385798      0.00222861      3.93694406
    C      0.00390610      0.00268872      0.00049376      3.93605139
    C      1.22617031     -0.70272881      0.00399383      3.93674555
    C      2.44795097      0.00324316      0.00830225      3.93688184
    C      2.44787400      1.41407003      0.01069672      3.93741107
    C      1.22579224      2.11903177      0.00807702      3.93671835
    C      1.22553203      3.59941384      0.01083931      4.06105184
    C      1.22549485      4.76723997      0.01252224      4.06495613
    C      3.72956846      2.15444634      0.01448932      4.06098852
    C      4.74060242      2.73844017      0.01607265      4.06495153
    C      3.73005671     -0.73688388      0.00992671      4.06012083
    C      4.74207905     -1.32112129      0.01020760      4.06717888
   12
Geometry Step: 2
    C     -0.00798357      1.42051838      0.00246198      3.93733078
    C     -0.00716804     -0.00307469      0.00099535      3.93914891
    C      1.22613003     -0.71510356      0.00419214      3.93773022
    C      2.45725241     -0.00228426      0.00827404      3.93725369
    C      2.45730791      1.41947598      0.01070895      3.93668430
    C      1.22537825      2.13007355      0.00804552      3.93816288
    C      1.22556915      3.56656273      0.01079384      4.06478161
    C      1.22525288      4.80183106      0.01233142      4.06010255
    C      3.70097558      2.13796475      0.01442597      4.06466420
    C      4.77091597      2.75546797      0.01568777      4.06019341
    C      3.70217296     -0.72079638      0.00991991      4.06684131
    C      4.77282925     -1.33894394      0.01001311      4.05710613
   12
Geometry Step: 3
    C     -0.00565698      1.41910634      0.00274539      3.93872764
    C     -0.00837076     -0.00471624      0.00163609      3.93801102
    C      1.22536467     -0.71678498      0.00444366      3.93873203
    C      2.46355307     -0.00616879      0.00823089      3.93924966
    C      2.46262481      1.42291741      0.01069757      3.93903066
    C      1.22596543      2.13659920      0.00799773      3.93835465
    C      1.22556898      3.56688790      0.01077040      4.06293044
    C      1.22579807      4.79681108      0.01205111      4.05991854
    C      3.70142106      2.13816583      0.01436648      4.06245801
    C      4.76652474      2.75328752      0.01519091      4.06034720
    C      3.70251953     -0.72096563      0.00990875      4.06269542
    C      4.76331484     -1.33344931      0.00981102      4.05954473
   12
Geometry Step: 4
    C     -0.00341668      1.41933913      0.00321301      3.93883337
    C     -0.00710408     -0.00497048      0.00260246      3.93869275
    C      1.22715960     -0.71626183      0.00486909      3.93967595
    C      2.46663599     -0.00666627      0.00817286      3.93889722
    C      2.46624951      1.42410321      0.01064365      3.94034431
    C      1.22808439      2.13999858      0.00793890      3.93934725
    C      1.22541213      3.56796826      0.01072006      4.06182252
    C      1.22646348      4.78915839      0.01160449      4.05953051
    C      3.70245530      2.13872486      0.01426402      4.06117196
    C      4.75960543      2.74993571      0.01444379      4.06016685
    C      3.69769086     -0.71829765      0.00988548      4.06211676
    C      4.75938071     -1.33134432      0.00949217      4.05940055
   12
Geometry Step: 5
    C      0.00185087      1.41875053      0.00376809      3.93995085
    C     -0.00332953     -0.00463334      0.00371007      3.93831487
    C      1.22921661     -0.71384438      0.00540822      3.93930438
    C      2.46630972     -0.00421149      0.00812190      3.93932304
    C      2.46746351      1.42461276      0.01055110      3.93984319
    C      1.23181631      2.14031638      0.00789623      3.93889373
    C      1.22527403      3.56372266      0.01063766      4.06140643
    C      1.22759456      4.78547742      0.01106259      4.05990913
    C      3.69904928      2.13655986      0.01412592      4.06070881
    C      4.75632108      2.74905833      0.01358101      4.06058719
    C      3.69521708     -0.71698908      0.00984713      4.06142030
    C      4.75183193     -1.32712026      0.00914005      4.06033808
   12
Geometry Step: 6
    C      0.01173840      1.41758726      0.00477665      3.94010417
    C      0.00479624     -0.00156326      0.00561213      3.93801400
    C      1.23310084     -0.70813958      0.00646216      3.93873293
    C      2.46339419      0.00179243      0.00808807      3.93888180
    C      2.46676654      1.42407949      0.01033318      3.93858252
    C      1.23722584      2.13671653      0.00788693      3.93796133
    C      1.22560175      3.55598908      0.01043627      4.06150017
    C      1.23049908      4.77863557      0.01004476      4.06071533
    C      3.69410884      2.13303885      0.01382650      4.06093483
    C      4.75074620      2.74785806      0.01207981      4.06109482
    C      3.68729475     -0.71227291      0.00974722      4.06131052
    C      4.74332529     -1.32201615      0.00855622      4.06216758
   12
Geometry Step: 7
    C      0.01416475      1.41797705      0.00524357      3.93962619
    C      0.00870143      0.00091172      0.00635951      3.93837799
    C      1.23456988     -0.70603555      0.00704200      3.93834257
    C      2.46083261      0.00491392      0.00815448      3.93861814
    C      2.46551313      1.42352598      0.01018342      3.93777885
    C      1.23850002      2.13359406      0.00797350      3.93789676
    C      1.22651889      3.55246617      0.01026580      4.06198936
    C      1.23284956      4.77517116      0.00952913      4.06079416
    C      3.69273009      2.13165087      0.01360548      4.06175262
    C      4.74841421      2.74771255      0.01146998      4.06083912
    C      3.68453444     -0.70999054      0.00965480      4.06248994
    C      4.74125173     -1.32020598      0.00836820      4.06149429
   12
Geometry Step: 8
    C      0.01416891      1.41817134      0.00537052      3.93897825
    C      0.01004220      0.00243339      0.00641367      3.93823023
    C      1.23465444     -0.70554314      0.00726559      3.93823105
    C      2.46035928      0.00513516      0.00825948      3.93854011
    C      2.46486433      1.42334026      0.01010600      3.93800851
    C      1.23774760      2.13247957      0.00808205      3.93792665
    C      1.22754379      3.55115596      0.01014063      4.06175424
    C      1.23443346      4.77360725      0.00936343      4.06122198
    C      3.69259441      2.13119998      0.01345367      4.06170996
    C      4.74744400      2.74779325      0.01140820      4.06118341
    C      3.68328513     -0.70841468      0.00958202      4.06205677
    C      4.74144278     -1.31968899      0.00840458      4.06215884
   12
Geometry Step: 9
    C      0.01231768      1.41926591      0.00545165      3.93860081
    C      0.01023374      0.00346748      0.00627471      3.93840090
    C      1.23462973     -0.70611264      0.00745738      3.93816077
    C      2.46006015      0.00499941      0.00842748      3.93863429
    C      2.46409049      1.42310296      0.01002752      3.93812428
    C      1.23661719      2.13173326      0.00823797      3.93810948
    C      1.22904089      3.55033125      0.00997124      4.06165607
    C      1.23626426      4.77245747      0.00924356      4.06129723
    C      3.69262986      2.13083693      0.01324244      4.06194181
    C      4.74689137      2.74814507      0.01149772      4.06115606
    C      3.68382003     -0.70741898      0.00948231      4.06197259
    C      4.74196742     -1.31916631      0.00853584      4.06194572
   12
Geometry Step: 10
    C      0.00988447      1.42075095      0.00557075      3.93840456
    C      0.00995618      0.00425127      0.00605792      3.93859413
    C      1.23478108     -0.70674899      0.00766119      3.93807340
    C      2.46010313      0.00469079      0.00867723      3.93874530
    C      2.46318518      1.42269539      0.00994801      3.93831084
    C      1.23549001      2.13138411      0.00843615      3.93827530
    C      1.23124881      3.54923055      0.00972454      4.06141166
    C      1.23847893      4.77124861      0.00911482      4.06143859
    C      3.69219078      2.13023672      0.01290677      4.06199985
    C      4.74583027      2.74830043      0.01166125      4.06127803
    C      3.68500550     -0.70613764      0.00934306      4.06164459
    C      4.74238064     -1.31829285      0.00874808      4.06182375
   12
Geometry Step: 11
    C      0.00906840      1.42122773      0.00566191      3.93846640
    C      0.00942380      0.00426560      0.00598886      3.93858698
    C      1.23492622     -0.70663343      0.00771363      3.93815007
    C      2.46035813      0.00468255      0.00880733      3.93872976
    C      2.46276558      1.42241362      0.00993752      3.93830932
    C      1.23528645      2.13136861      0.00850526      3.93834639
    C      1.23247468      3.54899507      0.00958994      4.06133200
    C      1.23922478      4.77064445      0.00906938      4.06147864
    C      3.69137628      2.12977361      0.01269236      4.06194803
    C      4.74531167      2.74813636      0.01173752      4.06135862
    C      3.68577177     -0.70547077      0.00927792      4.06152339
    C      4.74257159     -1.31781511      0.00886812      4.06177040
   12
Geometry Step: 12
    C      0.00850347      1.42154848      0.00580477      3.93857938
    C      0.00864233      0.00407975      0.00594761      3.93864809
    C      1.23508544     -0.70615206      0.00772070      3.93815559
    C      2.46071854      0.00470575      0.00896459      3.93866832
    C      2.46216061      1.42204692      0.00995407      3.93840780
    C      1.23516525      2.13139803      0.00855594      3.93826321
    C      1.23407252      3.54839656      0.00941428      4.06139046
    C      1.23973508      4.77061016      0.00903781      4.06148128
    C      3.69049443      2.12947040      0.01238227      4.06174626
    C      4.74419461      2.74731761      0.01182636      4.06149709
    C      3.68683659     -0.70461866      0.00920833      4.06147502
    C      4.74301344     -1.31725214      0.00903303      4.06168752
   12
Geometry Step: 13
    C      0.00859000      1.42124274      0.00589456      3.93863102
    C      0.00804087      0.00383718      0.00596754      3.93848075
    C      1.23498586     -0.70547834      0.00765280      3.93828738
    C      2.46095740      0.00480660      0.00902447      3.93857464
    C      2.46189979      1.42186785      0.00999215      3.93837566
    C      1.23519390      2.13132589      0.00854003      3.93829013
    C      1.23483654      3.54866591      0.00932711      4.06146197
    C      1.23947406      4.77050908      0.00905911      4.06149099
    C      3.68965290      2.12931043      0.01219790      4.06161850
    C      4.74406174      2.74673918      0.01186880      4.06157693
    C      3.68738833     -0.70420982      0.00919466      4.06154653
    C      4.74357312     -1.31706269      0.00913065      4.06166550
   12
Geometry Step: 14
    C      0.00885105      1.42086235      0.00597993      3.93860204
    C      0.00774435      0.00372747      0.00602858      3.93836937
    C      1.23480025     -0.70495913      0.00756902      3.93833950
    C      2.46103294      0.00487417      0.00904102      3.93851804
    C      2.46171389      1.42181808      0.01002656      3.93839782
    C      1.23515772      2.13116510      0.00850325      3.93827467
    C      1.23528242      3.54879982      0.00926211      4.06157621
    C      1.23895283      4.77062094      0.00909093      4.06147445
    C      3.68923738      2.12945477      0.01204622      4.06152289
    C      4.74402671      2.74604272      0.01188339      4.06161892
    C      3.68769286     -0.70392914      0.00920771      4.06165749
    C      4.74413918     -1.31688446      0.00921112      4.06164861
   12
Geometry Step: 15
    C      0.00897890      1.42071812      0.00605008      3.93857135
    C      0.00770971      0.00373704      0.00609373      3.93833369
    C      1.23469672     -0.70478050      0.00751360      3.93834200
    C      2.46103142      0.00489276      0.00903154      3.93850024
    C      2.46165349      1.42183417      0.01003634      3.93842872
    C      1.23512285      2.13107767      0.00847493      3.93827196
    C      1.23545786      3.54875911      0.00921463      4.06160423
    C      1.23845465      4.77061243      0.00911158      4.06147610
    C      3.68908968      2.12967881      0.01193881      4.06149551
    C      4.74415546      2.74550765      0.01188040      4.06161990
    C      3.68779440     -0.70375299      0.00923230      4.06170857
    C      4.74445579     -1.31665025      0.00927190      4.06164775
   12
Geometry Step: 16
    C      0.00889066      1.42075962      0.00617738      3.93852075
    C      0.00767716      0.00384684      0.00617955      3.93832348
    C      1.23457872     -0.70469122      0.00744158      3.93832949
    C      2.46102369      0.00488160      0.00902419      3.93850007
    C      2.46151267      1.42183603      0.01002941      3.93845496
    C      1.23500588      2.13091766      0.00844751      3.93828057
    C      1.23582228      3.54859553      0.00911426      4.06162299
    C      1.23774519      4.77046557      0.00913740      4.06147183
    C      3.68881195      2.13001797      0.01173511      4.06147754
    C      4.74444314      2.74465475      0.01189220      4.06163988
    C      3.68805295     -0.70341941      0.00927199      4.06173052
    C      4.74492728     -1.31616336      0.00939935      4.06164791
   12
Geometry Step: 17
    C      0.00857959      1.42103877      0.00636299      3.93847347
    C      0.00767256      0.00407280      0.00628963      3.93834268
    C      1.23449046     -0.70466880      0.00736217      3.93830731
    C      2.46103125      0.00483767      0.00900293      3.93849541
    C      2.46136320      1.42180902      0.00998467      3.93847814
    C      1.23486482      2.13075926      0.00842213      3.93831098
    C      1.23620447      3.54826823      0.00896668      4.06157519
    C      1.23677251      4.77011771      0.00916624      4.06150491
    C      3.68847724      2.13048386      0.01144878      4.06149626
    C      4.74500428      2.74351867      0.01191224      4.06165357
    C      3.68838021     -0.70299213      0.00933805      4.06170317
    C      4.74547830     -1.31543502      0.00959362      4.06165890
   12
Geometry Step: 18
    C      0.00836834      1.42135544      0.00648439      3.93846733
    C      0.00777209      0.00428245      0.00636793      3.93839474
    C      1.23450430     -0.70472426      0.00733309      3.93829469
    C      2.46105626      0.00481978      0.00895808      3.93849882
    C      2.46141423      1.42182327      0.00991240      3.93845718
    C      1.23487624      2.13069917      0.00840864      3.93833360
    C      1.23611148      3.54802314      0.00888481      4.06152526
    C      1.23605295      4.76982329      0.00917817      4.06152066
    C      3.68840231      2.13078327      0.01129451      4.06154296
    C      4.74555801      2.74285504      0.01190990      4.06163935
    C      3.68844503     -0.70287518      0.00940178      4.06164759
    C      4.74563328     -1.31499684      0.00971655      4.06167781
   12
Geometry Step: 19
    C      0.00810981      1.42166069      0.00657831      3.93847062
    C      0.00779094      0.00448504      0.00640333      3.93843509
    C      1.23454762     -0.70464547      0.00733872      3.93830094
    C      2.46113573      0.00482015      0.00892138      3.93848695
    C      2.46149824      1.42180775      0.00981610      3.93843181
    C      1.23489326      2.13065918      0.00841154      3.93836056
    C      1.23591583      3.54784052      0.00882562      4.06148457
    C      1.23560859      4.76957111      0.00917760      4.06155054
    C      3.68841492      2.13089577      0.01118977      4.06158070
    C      4.74598100      2.74244551      0.01191404      4.06162684
    C      3.68850750     -0.70287918      0.00945388      4.06159386
    C      4.74573474     -1.31476185      0.00981995      4.06167754
   12
Geometry Step: 20
    C      0.00786303      1.42190331      0.00666246      3.93846759
    C      0.00774293      0.00468456      0.00641699      3.93846228
    C      1.23458336     -0.70443540      0.00736405      3.93832558
    C      2.46126477      0.00484328      0.00888723      3.93846969
    C      2.46160319      1.42180521      0.00969703      3.93840807
    C      1.23488959      2.13061126      0.00842004      3.93838258
    C      1.23563039      3.54770333      0.00878164      4.06148551
    C      1.23530839      4.76940069      0.00917030      4.06156719
    C      3.68851245      2.13087918      0.01111169      4.06160753
    C      4.74631718      2.74217205      0.01191976      4.06160892
    C      3.68856936     -0.70298455      0.00950216      4.06155445
    C      4.74586585     -1.31465566      0.00991684      4.06166060
   12
Geometry Step: 21
    C      0.00763510      1.42207720      0.00676074      3.93845223
    C      0.00765614      0.00491942      0.00642479      3.93846449
    C      1.23460842     -0.70401889      0.00740313      3.93836547
    C      2.46145159      0.00490455      0.00884385      3.93843933
    C      2.46174795      1.42183793      0.00953317      3.93839214
    C      1.23485124      2.13055193      0.00842623      3.93840520
    C      1.23518653      3.54758282      0.00874555      4.06151147
    C      1.23499395      4.76926266      0.00915990      4.06159404
    C      3.68873137      2.13076692      0.01103717      4.06162170
    C      4.74665122      2.74191921      0.01192354      4.06158460
    C      3.68863430     -0.70321691      0.00956091      4.06153202
    C      4.74610770     -1.31461261      0.01003097      4.06163732
   12
Geometry Step: 22
    C      0.00750060      1.42208735      0.00682273      3.93842424
    C      0.00755863      0.00505870      0.00641928      3.93843970
    C      1.23459190     -0.70364055      0.00742643      3.93839754
    C      2.46159579      0.00497254      0.00882395      3.93842558
    C      2.46180141      1.42190322      0.00942047      3.93839717
    C      1.23474517      2.13049526      0.00842281      3.93841540
    C      1.23488295      3.54756379      0.00873461      4.06156259
    C      1.23488392      4.76922642      0.00915608      4.06159833
    C      3.68893365      2.13059242      0.01099205      4.06161390
    C      4.74676117      2.74182486      0.01192943      4.06157427
    C      3.68872448     -0.70343190      0.00959294      4.06154668
    C      4.74638658     -1.31463784      0.01010894      4.06160460
   12
Geometry Step: 23
    C      0.00756930      1.42197862      0.00683597      3.93841956
    C      0.00753031      0.00502473      0.00643234      3.93841794
    C      1.23457504     -0.70354063      0.00740723      3.93840611
    C      2.46161763      0.00501359      0.00882376      3.93842180
    C      2.46177514      1.42195021      0.00941856      3.93840590
    C      1.23470518      2.13049922      0.00840337      3.93841074
    C      1.23485017      3.54760024      0.00874193      4.06158418
    C      1.23482372      4.76926282      0.00916632      4.06158701
    C      3.68893954      2.13055153      0.01097432      4.06159959
    C      4.74672568      2.74177870      0.01192648      4.06157378
    C      3.68875253     -0.70347125      0.00959549      4.06157802
    C      4.74650971     -1.31461210      0.01012385      4.06159538
