540
frame
C -18.56566646 9.21682597 0.12835701 4.0695436
C -18.54292968 4.92544595 0.05828217 4.06718898
C -17.33742268 7.10797959 0.09562806 3.98592151
C -16.11156452 9.24618037 0.13227155 3.99557651
C -14.88341721 11.38306928 0.16890876 3.98592121
C -18.52833822 0.64004854 -0.01186079 4.06714994
C -17.32133797 2.8200627 0.02551311 3.98505079
C -16.09774672 4.96118822 0.06224708 3.99782589
C -14.86166579 7.1011385 0.09896031 4.00172367
C -13.62871441 9.24904673 0.13579046 4.00172365
C -12.4042113 11.39564204 0.1725991 3.99782586
C -11.17238942 13.53204582 0.20928296 3.98505076
C -18.51876089 -3.64565816 -0.08228195 4.06712944
C -17.30978667 -1.46603145 -0.04481116 3.98490298
C -16.08341 0.6738334 -0.00800026 3.99764917
C -14.84712073 2.81663141 0.0288415 4.00168242
C -13.61740422 4.96665748 0.0657554 4.00018776
C -12.38945419 7.11010969 0.10252915 4.00027399
C -11.15782647 9.25145122 0.13926136 4.00018784
C -9.92141 11.39763298 0.17608632 4.00168247
C -8.69454783 13.54584352 0.21294043 3.99764914
C -7.46521633 15.68401708 0.24963495 3.98490281
C -18.51517187 -7.93899771 -0.15314052 4.06654967
C -17.3031489 -5.7544129 -0.11547979 3.98449017
C -16.07398245 -3.61303591 -0.07853588 3.9976423
C -14.8353819 -1.47021734 -0.04158161 4.00162223
C -13.60514131 0.68130047 -0.00453439 4.00002482
C -12.37701967 2.82570948 0.0323476 4.00023532
C -11.14431323 4.96865582 0.06916442 4.00029965
C -9.91210193 7.11527142 0.10600325 4.00029967
C -8.68330788 9.26046418 0.14279388 4.00023537
C -7.45093578 11.40243637 0.17952965 4.00002489
C -6.21349131 13.54982403 0.2163518 4.00162224
C -4.98777337 15.70004195 0.25317874 3.99764222
C -3.75854028 17.84138944 0.28983267 3.98449001
C -17.29697041 -10.04381938 -0.18645269 3.9659304
C -16.0673356 -7.89711324 -0.14933134 3.99867476
C -14.82739767 -5.75595495 -0.11230688 4.00141734
C -13.59480533 -3.60464027 -0.0751504 3.99987358
C -12.36572131 -1.4596395 -0.03813717 4.00013802
C -11.13233234 0.68432343 -0.001183 4.00024705
C -9.90083866 2.83173982 0.03576644 4.00020329
C -8.67150575 4.97642619 0.07261022 4.00023712
C -7.4395073 7.11958355 0.10938838 4.00020332
C -6.2062394 9.26598422 0.14619187 4.00024708
C -4.97690749 11.41228006 0.18296546 4.00013804
C -3.7445061 13.55538328 0.21966435 3.9998736
C -2.50841998 15.70470101 0.256435 4.00141734
C -1.28480703 17.85523662 0.29317515 3.99867464
C -16.07224713 -12.14485384 -0.2197651 4.06654962
C -14.82276102 -10.03983297 -0.18328023 3.99867479
C -13.58570317 -7.88881456 -0.14604825 3.99961561
C -12.35619682 -5.74366307 -0.1089359 4.00008732
C -11.12186892 -3.60041154 -0.07187492 4.00016453
C -9.88981999 -1.45273492 -0.03478807 4.00011822
C -8.66012861 0.69233936 0.00219064 4.00019301
C -7.42791878 2.83615145 0.03908187 4.00018596
C -6.19595344 4.98233644 0.07594684 4.00018597
C -4.96615957 7.12753718 0.11274079 4.00019304
C -3.73400365 9.27120124 0.14947321 4.00011826
C -2.50078722 11.4182142 0.1862261 4.00016454
C -1.27254016 13.5649633 0.22293017 4.00008732
C -0.04021822 15.70850774 0.25955004 3.9996156
C 1.19336242 17.86153011 0.29630167 3.99867464
C -13.57385938 -12.17493171 -0.2172021 3.9844901
C -12.34826565 -10.02414373 -0.17995393 4.00141737
C -11.11290952 -7.88416277 -0.14287329 4.00008727
C -9.87942338 -5.73669963 -0.10568517 4.00006198
C -8.64941082 -3.59162019 -0.06857608 4.00014174
C -7.41689359 -1.44781457 -0.03154195 4.00015571
C -6.1850527 0.6986179 0.00545961 4.00015025
C -4.95501706 2.84358383 0.04235542 4.00017484
C -3.72312988 4.98748872 0.07916524 4.00015027
C -2.49088556 7.13369338 0.11595432 4.00015575
C -1.26124913 9.27915803 0.15267903 4.00014177
C -0.02924688 11.42310332 0.18933732 4.00006202
C 1.20306335 13.57125059 0.22602244 4.00008732
C 2.42797108 15.71723763 0.26263053 4.00141734
C 3.66713467 17.86024744 0.29918908 3.98449001
C -12.3444323 -14.27565906 -0.2506907 4.06712943
C -11.10451185 -12.16870113 -0.21412382 3.99764229
C -9.86858773 -10.01986348 -0.17685308 3.99987356
C -8.63937727 -7.87437883 -0.13965417 4.00016451
C -7.40644225 -5.73156886 -0.10252011 4.00014173
C -6.17413508 -3.5851564 -0.06537523 4.00011613
C -4.94406161 -1.44015005 -0.02832945 4.0001552
C -3.71208688 0.70380892 0.00861547 4.00015115
C -2.4802249 2.84981309 0.04550807 4.00015116
C -1.25018416 4.99488494 0.08230659 4.00015523
C -0.01827844 7.13884525 0.1190251 4.00011618
C 1.21371696 9.28544418 0.15573233 4.00014177
C 2.44228647 11.43076853 0.19236631 4.00016454
C 3.67504643 13.57422665 0.2289332 3.9998736
C 4.90731652 15.72517167 0.26559227 3.99764222
C -9.85186484 -14.30591814 -0.24827498 3.98490296
C -8.62923678 -12.15499022 -0.21094148 4.00162224
C -7.39613409 -10.01549841 -0.17379255 4.00013797
C -6.16313092 -7.86876454 -0.13654114 4.00011819
C -4.93332726 -5.72362893 -0.09936079 4.0001557
C -3.70118875 -3.57993329 -0.06226745 4.00015519
C -2.46931034 -1.43387824 -0.02522214 4.00014123
C -1.23913276 0.71109398 0.01170801 4.0001484
C -0.00731124 2.85512431 0.04853385 4.00014125
C 1.2245892 5.00117131 0.08531426 4.00015523
C 2.45432305 7.14625444 0.12201089 4.00015575
C 3.68648037 9.29004856 0.1586338 4.00011826
C 4.91840534 11.43741188 0.19526787 4.00013804
C 6.14402859 13.58120798 0.23179931 4.00162224
C 7.38481018 15.72173001 0.26826887 3.98490282
C -8.62621912 -16.40786819 -0.28197464 4.06714995
C -7.38521508 -14.30135727 -0.24531723 3.99764921
C -6.15054892 -12.15284915 -0.20796583 4.00002483
C -4.92244999 -10.00687838 -0.1706838 4.00024701
C -3.69031465 -7.86390582 -0.1334833 4.00019298
C -2.45826657 -5.71757607 -0.09628591 4.00015022
C -1.22821115 -3.57253742 -0.05919606 4.00015114
C 0.00365616 -1.42854418 -0.0222204 4.00014838
C 1.23547276 0.7173804 0.01468617 4.0001484
C 2.46559757 2.86237693 0.05148412 4.00015116
C 3.69754082 5.00633854 0.08819041 4.00015027
C 4.92959671 7.15267269 0.12487353 4.00019304
C 6.15871119 9.2973896 0.16147573 4.00024708
C 7.39245253 11.44013452 0.1980095 4.00002489
C 8.62507404 13.58982868 0.23462573 3.99764915
C -6.13429473 -16.44002972 -0.27964159 3.98505088
C -4.91110518 -14.28964003 -0.24222379 4.00168245
C -3.67908809 -12.14902309 -0.20497865 4.00023531
C -2.44670648 -10.00161373 -0.16765312 4.00020327
C -1.2173479 -7.85623256 -0.13042049 4.00018591
C 0.01462405 -5.71236209 -0.09328858 4.00017478
C 1.24648586 -3.56625084 -0.05621836 4.00015114
C 2.47661787 -1.42131368 -0.01927634 4.00014123
C 3.70843225 0.72265976 0.01755013 4.00015115
C 4.94038977 2.86872096 0.05432355 4.00017484
C 6.17035902 5.01374871 0.09100717 4.00018597
C 7.40295358 7.15728328 0.12761381 4.00020332
C 8.6357765 9.30445171 0.16423693 4.00023537
C 9.8629201 11.44787896 0.20076031 4.00168247
C 11.10295511 13.58861537 0.23723641 3.98505076
C -4.91076211 -18.54427171 -0.31348745 4.06718895
C -3.66793207 -16.43851064 -0.27675529 3.99782595
C -2.43397502 -14.28721169 -0.2392816 4.00018783
C -1.20662695 -12.14048832 -0.20192603 4.00029966
C 0.02559387 -9.99687033 -0.16466982 4.00023708
C 1.25755802 -7.84994552 -0.12743254 4.00018591
C 2.48750934 -5.70501216 -0.09032585 4.00015021
C 3.71946936 -3.56108202 -0.0533423 4.00015519
C 4.95136936 -1.41501178 -0.01643229 4.00015519
C 6.18139294 0.73003301 0.02036087 4.00015025
C 7.41329802 2.87385189 0.05705559 4.00018596
C 8.64591011 5.02041448 0.09373497 4.00023712
C 9.87553898 7.16553121 0.13034173 4.00029967
C 11.11031002 9.30800774 0.16687751 4.00018784
C 12.3457004 11.45849807 0.20352529 3.99782586
C -2.41738957 -18.57897576 -0.31119365 3.98592139
C -1.19640058 -16.42555907 -0.27366169 4.00172372
C 0.03656825 -14.28305629 -0.23632941 4.000274
C 1.26877557 -12.13419989 -0.1989412 4.00029965
C 2.49788647 -9.98905283 -0.16168834 4.00020327
C 3.73053217 -7.84505438 -0.12453949 4.00019298
C 4.96256915 -5.69848969 -0.08745406 4.0001557
C 6.19241071 -3.55374045 -0.05051388 4.00011613
C 7.42420899 -1.41011243 -0.01369705 4.0001557
C 8.65646953 0.73632921 0.02307618 4.00019301
C 9.88620913 2.8820035 0.05976447 4.00020329
C 11.11872616 5.02520596 0.09636526 4.00029965
C 12.35288648 7.1729535 0.13300829 4.00027399
C 13.5811792 9.31815367 0.16958025 4.00172365
C 14.82493968 11.45851718 0.20607715 3.98592122
C -1.19414287 -20.69070689 -0.34521911 4.06954387
C 0.04755502 -18.57403376 -0.3082543 3.9955767
C 1.28049235 -16.41926688 -0.27068458 4.00172371
C 2.50710062 -14.27465947 -0.23334106 4.00018782
C 3.74124836 -12.13017271 -0.19605481 4.00023531
C 4.97362502 -9.98173868 -0.15878506 4.00024702
C 6.20334152 -7.83734886 -0.12168313 4.00011819
C 7.43569312 -5.69386364 -0.08470303 4.00014173
C 8.66768805 -3.54762751 -0.04778917 4.00014174
C 9.89712921 -1.4024684 -0.01099668 4.00011822
C 11.12868295 0.74087356 0.02568808 4.00024705
C 12.36238973 2.88855271 0.06239027 4.00023532
C 13.59179624 5.03577057 0.09904365 4.00018777
C 14.82511288 7.17654025 0.13557057 4.00172368
C 16.0640129 9.32789836 0.17226227 3.99557651
C 1.30007627 -20.68437056 -0.34222318 4.06954387
C 2.5124929 -18.5664519 -0.3052757 3.98592139
C 3.75205803 -16.41966059 -0.26786116 3.99782595
C 4.98421123 -14.26450139 -0.23037697 4.00168245
C 6.212697 -12.12144078 -0.19316914 4.00002484
C 7.44732156 -9.97778907 -0.15602919 4.00013797
C 8.67958492 -7.83038042 -0.1189278 4.0001645
C 9.90866905 -5.68642857 -0.08199582 4.00006198
C 11.14015985 -3.54385597 -0.04519034 4.00016453
C 12.37303455 -1.39679312 -0.00839909 4.00013801
C 13.60147625 0.75041386 0.02832396 4.00002483
C 14.83250626 2.89202342 0.06491429 4.00168243
C 16.07213554 5.04290137 0.10164289 3.99782589
C 17.30080373 7.19595702 0.13838107 3.98592152
C 18.51823444 9.31100961 0.17446464 4.0695436
C 5.00565528 -18.5190792 -0.3016283 4.06718896
C 6.21839661 -16.40864727 -0.26491316 3.98505087
C 7.45834927 -14.2636461 -0.22765324 3.9976492
C 8.69136403 -12.11098578 -0.19033828 4.00162224
C 9.91976589 -9.96958965 -0.15329684 3.99987355
C 11.15313577 -7.82759464 -0.11633682 4.00008727
C 12.38544675 -5.6808062 -0.07940043 4.00008732
C 13.61308666 -3.535519 -0.0425887 3.99987358
C 14.84271821 -1.39482255 -0.00592723 4.00162224
C 16.07975206 0.75553802 0.03085167 3.99764917
C 17.30667486 2.90802456 0.06762533 3.98505079
C 18.51747092 5.01958118 0.10368675 4.06718898
C 8.71012419 -16.3638219 -0.26146737 4.06714994
C 9.9249907 -14.2556709 -0.22490565 3.98490295
C 11.16667757 -12.11211662 -0.18779004 3.99764228
C 12.39943412 -9.96126798 -0.15063968 4.00141736
C 13.62592183 -7.81967985 -0.11374101 3.99961561
C 14.85667933 -5.68054006 -0.0769678 4.00141734
C 16.09227554 -3.5313169 -0.0401015 3.9976423
C 17.31707045 -1.37806418 -0.00323865 3.98490298
C 18.52482237 0.73417585 0.03288497 4.06714994
C 12.41737126 -14.21274317 -0.22162164 4.06712941
C 13.63602553 -12.10579679 -0.18519258 3.98449009
C 14.87397835 -9.96438097 -0.14824595 3.99867478
C 16.10756542 -7.81536671 -0.11125175 3.99867475
C 17.33239153 -5.66641691 -0.07433918 3.98449016
C 18.53719016 -3.55151548 -0.03808073 4.06712944
C 16.13422749 -12.06302132 -0.18200972 4.0665496
C 17.34817677 -9.95579285 -0.14570044 3.96593038
C 18.55558519 -7.84481078 -0.10938279 4.06654965
C -18.55558016 7.84486694 0.10596465 4.06654966
C -17.34817161 9.95585153 0.14213127 3.96593038
C -18.53718651 3.55155293 0.03581341 4.06712944
C -17.33238782 5.66645419 0.07207453 3.98449017
C -16.10756173 7.81540533 0.1089013 3.99867476
C -14.87397452 9.96442198 0.14574043 3.99867478
C -13.63602164 12.10584115 0.18248258 3.98449009
C -18.52481999 -0.7341502 -0.03441684 4.06714995
C -17.31706813 1.37808662 0.00188667 3.98490298
C -16.09227313 3.53133753 0.03884926 3.99764231
C -14.85667697 5.68056029 0.07573234 4.00141734
C -13.62591943 7.8197012 0.11242536 3.99961562
C -12.39943163 9.96129216 0.14914878 4.00141737
C -11.16667505 12.11214491 0.18605259 3.99764229
C -9.92498812 14.2557041 0.22287327 3.98490296
C -18.5174694 -5.01955954 -0.10493327 4.06718898
C -17.30667332 -2.90800882 -0.06853644 3.9850508
C -16.07975058 -0.75552726 -0.03148133 3.99764917
C -14.84271689 1.39482944 0.00551778 4.00162224
C -13.61308539 3.53552351 0.04231238 3.99987358
C -12.38544554 5.68081026 0.07913977 4.00008732
C -11.15313451 7.82760033 0.11597067 4.00008728
C -9.91976459 9.96959878 0.15271655 3.99987356
C -8.69136274 12.11099996 0.18944998 4.00162224
C -7.45834782 14.26366652 0.22637823 3.99764921
C -6.21839508 16.40867546 0.26317057 3.98505087
C -18.51823361 -9.31098505 -0.17585662 4.06954359
C -17.30080288 -7.19594067 -0.13930014 3.98592151
C -16.07213477 -5.04289255 -0.10213092 3.99782589
C -14.83250566 -2.89202144 -0.06501156 4.00168242
C -13.60147585 -0.75041766 -0.0280864 4.00002483
C -12.3730343 1.39678508 0.0088822 4.00013802
C -11.14015967 3.54384562 0.04580235 4.00016453
C -9.90866895 5.6864183 0.0825985 4.00006198
C -8.67958472 7.83037256 0.11937989 4.00016451
C -7.44732129 9.9777857 0.15620451 4.00013797
C -6.21269668 12.12144365 0.19295829 4.00002483
C -4.98421074 14.26451238 0.22967395 4.00168245
C -3.75205739 16.41968148 0.26656214 3.99782594
C -2.51249206 18.56648425 0.30328782 3.98592139
C -17.26559662 -11.46758167 -0.21001818 4.06954368
C -16.06401271 -9.32788455 -0.17303003 3.9955765
C -14.8251128 -7.17653539 -0.13581635 4.00172367
C -13.59179627 -5.03577412 -0.09880214 4.00018776
C -12.36239003 -2.88856369 -0.06171531 4.00023532
C -11.1286835 -0.7408906 -0.02465811 4.00024705
C -9.89712989 1.40244717 0.01226826 4.00011822
C -8.66768885 3.54760457 0.04915812 4.00014174
C -7.43569397 5.6938416 0.08601245 4.00014173
C -6.20334227 7.83733021 0.1227803 4.00011819
C -4.97362566 9.98172579 0.15952996 4.00024701
C -3.74124883 12.13016775 0.19632199 4.00023531
C -2.5071008 14.27466438 0.23301756 4.00018782
C -1.28049226 16.41928341 0.26966916 4.00172371
C -0.04755465 18.57406334 0.30646901 3.99557669
C -14.82493991 -11.45850373 -0.20682896 3.98592121
C -13.58117964 -9.31814999 -0.1697556 4.00172365
C -12.35288711 -7.17295939 -0.13262223 4.00027399
C -11.11872693 -5.02522067 -0.09545779 4.00029965
C -9.88621017 -2.88202588 -0.05840477 4.00020329
C -8.65647081 -0.73635755 -0.02136929 4.00019301
C -7.42421046 1.41008053 0.01561146 4.00015571
C -6.19241232 3.55370777 0.05247277 4.00011613
C -4.96257066 5.69845898 0.08928721 4.0001557
C -3.73053357 7.84502842 0.1260844 4.00019298
C -2.4978877 9.9890341 0.1627993 4.00020327
C -1.26877651 12.13419055 0.19948943 4.00029966
C -0.03656882 14.28305823 0.23620463 4.000274
C 1.19640031 16.42557377 0.27278322 4.00172371
C 2.4173897 18.57900399 0.30951429 3.98592138
C -13.5372884 -13.59366459 -0.24075888 4.06718889
C -12.34570109 -11.45849275 -0.20379758 3.99782585
C -11.11031092 -9.308013 -0.16652864 4.00018784
C -9.8755402 -7.16554649 -0.12939956 4.00029968
C -8.64591151 -5.02043887 -0.09225641 4.00023712
C -7.41329972 -2.87388381 -0.05513267 4.00018596
C -6.18139489 -0.73007023 -0.01812447 4.00015025
C -4.95137149 1.41497201 0.01882034 4.0001552
C -3.71947151 3.56104261 0.05570505 4.00015519
C -2.48751129 5.70497612 0.09248524 4.00015022
C -1.25755981 7.8499156 0.1292227 4.00018591
C -0.02559545 9.99684893 0.16594616 4.00023709
C 1.2066257 12.14047748 0.20256973 4.00029966
C 2.43397414 14.28721315 0.23919949 4.00018783
C 3.66793157 16.43852538 0.27588508 3.99782594
C -11.10295582 -13.58860565 -0.2377777 3.98505075
C -9.86292114 -11.44788068 -0.20062825 4.00168247
C -8.63577784 -9.30446452 -0.16344625 4.00023537
C -7.40295523 -7.15730643 -0.12621261 4.00020333
C -6.17036094 -5.01378075 -0.08907677 4.00018597
C -4.94039198 -2.86875986 -0.05198177 4.00017484
C -3.7084346 -0.722703 -0.01495036 4.00015115
C -2.47662031 1.42126903 0.02195619 4.00014123
C -1.24648829 3.56620792 0.05879168 4.00015114
C -0.01462622 5.71232393 0.09557527 4.00017478
C 1.21734593 7.85620185 0.13226069 4.00018591
C 2.44670478 10.00159268 0.16891517 4.00020327
C 3.67908671 12.14901355 0.2055601 4.00023531
C 4.91110428 14.2896431 0.24205578 4.00168245
C 6.13429425 16.44004615 0.27868125 3.98505086
C -9.81822934 -15.72379467 -0.2719215 4.06714993
C -8.62507486 -13.58982383 -0.23488153 3.99764914
C -7.39245377 -11.44014185 -0.19754471 4.00002489
C -6.15871278 -9.29740833 -0.16033519 4.00024708
C -4.9295986 -7.1527016 -0.1231287 4.00019304
C -3.69754304 -5.00637581 -0.08594689 4.00015027
C -2.46560004 -2.86242022 -0.04888412 4.00015116
C -1.23547531 -0.71742679 -0.01190127 4.0001484
C -0.00365871 1.42849784 0.02500234 4.00014838
C 1.2282087 3.57249429 0.06178647 4.00015114
C 2.45826439 5.71753909 0.09851222 4.00015022
C 3.69031279 7.86387736 0.13520034 4.00019298
C 4.92244841 10.00686034 0.17178197 4.00024702
C 6.15054769 12.15284282 0.20836634 4.00002483
C 7.38521429 14.30136356 0.24496784 3.9976492
C -7.38481082 -15.72171628 -0.26906557 3.98490281
C -6.14402959 -13.58120723 -0.23182468 4.00162224
C -4.91840681 -11.43742348 -0.19455699 4.00013804
C -3.68648212 -9.29007145 -0.15725267 4.00011826
C -2.45432507 -7.14628691 -0.12005689 4.00015575
C -1.22459148 -5.00121124 -0.08291671 4.00015523
C 0.00730872 -2.85516898 -0.04585294 4.00014125
C 1.23913022 -0.71114033 -0.00892605 4.0001484
C 2.46930786 1.43383341 0.02791568 4.00014123
C 3.70118641 3.579893 0.06469167 4.0001552
C 4.93332525 5.72359579 0.1013593 4.0001557
C 6.16312924 7.86874062 0.13799183 4.00011819
C 7.39613272 10.01548521 0.1746087 4.00013797
C 8.62923577 12.1549886 0.2110719 4.00162224
C 9.85186423 14.30592867 0.24768915 3.98490295
C -6.1014024 -17.85841871 -0.30336709 4.06712934
C -4.90731721 -15.72516049 -0.26624636 3.99764221
C -3.67504752 -13.57422864 -0.22880512 3.9998736
C -2.44228797 -11.43078276 -0.19151611 4.00016454
C -1.21371879 -9.28546902 -0.1542478 4.00014177
C 0.0182764 -7.1388787 -0.11702357 4.00011618
C 1.25018194 -4.99492453 -0.07993504 4.00015523
C 2.4802225 -2.84985597 -0.04293631 4.00015116
C 3.71208453 -0.70385199 -0.00602691 4.00015115
C 4.94405943 1.44010976 0.03075263 4.0001552
C 6.17413312 3.58512165 0.06746791 4.00011613
C 7.4064406 5.73154194 0.10414644 4.00014173
C 8.63937584 7.87436144 0.14071836 4.0001645
C 9.86858664 10.0198566 0.17729403 3.99987356
C 11.10451102 12.16870541 0.2139079 3.99764228
C -3.66713486 -17.86022396 -0.30058403 3.98449
C -2.42797169 -15.71722763 -0.26322559 4.00141734
C -1.20306429 -13.57125346 -0.22585705 4.00008732
C 0.02924555 -11.42311763 -0.1884899 4.00006202
C 1.26124752 -9.27918185 -0.15125908 4.00014177
C 2.4908838 -7.13372453 -0.11409197 4.00015575
C 3.72312799 -4.98752465 -0.07701396 4.00015027
C 4.95501503 -2.84362166 -0.04008617 4.00017484
C 6.18505082 -0.69865475 -0.00324798 4.00015025
C 7.41689192 1.44778159 0.03352642 4.00015571
C 8.64940941 3.59159356 0.07018787 4.00014174
C 9.87942227 5.73668119 0.10681585 4.00006198
C 11.1129086 7.88415371 0.1434491 4.00008728
C 12.34826499 10.0241448 0.17993576 4.00141736
C 13.57385895 12.17494302 0.21657715 3.98449009
C -2.38095145 -20.00204352 -0.33503357 4.0665496
C -1.19336238 -17.86150613 -0.29773832 3.99867464
C 0.04021793 -15.70849699 -0.26020571 3.9996156
C 1.27253958 -13.56496448 -0.2228757 4.00008732
C 2.5007863 -11.41822565 -0.18555794 4.00016455
C 3.73400252 -9.27122092 -0.14831051 4.00011826
C 4.96615831 -7.12756281 -0.11121831 4.00019304
C 6.19595207 -4.98236544 -0.07421383 4.00018597
C 7.42791745 -2.83618117 -0.03730228 4.00018596
C 8.66012745 -0.692367 -0.00053001 4.00019301
C 9.88981901 1.45271194 0.03618028 4.00011822
C 11.12186822 3.60039519 0.07287787 4.00016453
C 12.3561964 5.74365475 0.10946468 4.00008732
C 13.58570284 7.88881524 0.146051 3.99961562
C 14.82276087 10.03984314 0.18272493 3.99867478
C 0.05120529 -19.9996364 -0.33217599 3.96592991
C 1.28480746 -17.85521066 -0.29476129 3.99867464
C 2.50842011 -15.70468723 -0.25729595 4.00141734
C 3.744506 -13.55538005 -0.21989489 3.9998736
C 4.97690716 -11.41228551 -0.18267393 4.00013804
C 6.20623895 -9.26599637 -0.14549105 4.00024708
C 7.43950677 -7.11960025 -0.10840554 4.00020333
C 8.67150517 -4.97644513 -0.07148661 4.00023712
C 9.9008382 -2.8317585 -0.03465232 4.00020329
C 11.13233199 -0.6843393 0.0021381 4.00024705
C 12.36572113 1.45962855 0.03880594 4.00013802
C 13.59480542 3.60463579 0.07544221 3.99987358
C 14.82739795 5.7559581 0.11215854 4.00141734
C 16.067336 7.89712479 0.14869588 3.99867475
C 17.29697087 10.04383983 0.18529992 3.96593038
C 2.48334277 -19.98968629 -0.3291934 4.0665496
C 3.7585412 -17.84135944 -0.29168515 3.98449001
C 4.98777418 -15.70002223 -0.2544123 3.99764222
C 6.213492 -13.54981302 -0.21705873 4.00162224
C 7.45093632 -11.40243218 -0.17981441 4.00002489
C 8.68330843 -9.26046527 -0.14275452 4.00023537
C 9.91210242 -7.11527601 -0.10574659 4.00029967
C 11.14431368 -4.9686618 -0.06881902 4.00029965
C 12.3770202 -2.8257145 -0.03205051 4.00023532
C 13.60514194 -0.68130248 0.00466009 4.00002483
C 14.83538272 1.47022 0.04143787 4.00162224
C 16.07398341 3.61304462 0.07804763 3.9976423
C 17.30314997 5.75442835 0.11460821 3.98449016
C 18.51517293 7.93902051 0.15185392 4.06654966
C 6.19276796 -17.82718508 -0.28870088 4.06712934
C 7.4652182 -15.6839883 -0.2514188 3.98490281
C 8.69454951 -13.54582116 -0.21432557 3.99764914
C 9.92141163 -11.39761615 -0.17713456 4.00168248
C 11.15782812 -9.25143855 -0.1400533 4.00018785
C 12.38945579 -7.11009965 -0.10315597 4.00027399
C 13.61740579 -4.96664821 -0.06632405 4.00018777
C 14.84712239 -2.81662105 -0.02946605 4.00168243
C 16.0834117 -0.67382019 0.00721587 3.99764917
C 17.30978852 1.46604871 0.04380135 3.98490297
C 18.51876268 3.64568027 0.08100521 4.06712944
C 9.89861605 -15.67369934 -0.24865882 4.06714993
C 11.1723924 -13.53200941 -0.21151291 3.98505075
C 12.40421423 -11.39560996 -0.1745694 3.99782586
C 13.62871728 -9.24901818 -0.13754466 4.00172365
C 14.86166854 -7.10111205 -0.10057626 4.00172368
C 16.09774952 -4.9611624 -0.06381871 3.99782589
C 17.32134078 -2.82003612 -0.02712175 3.98505079
C 18.52834079 -0.64002004 0.0101538 4.06714994
C 13.6067198 -13.52469549 -0.20892173 4.06718889
C 14.88342154 -11.38302039 -0.17189361 3.98592122
C 16.11156872 -9.24613439 -0.13507184 3.99557652
C 17.33742682 -7.10793574 -0.09829468 3.98592152
C 18.5429338 -4.92540321 -0.0608721 4.06718898
C 17.3240938 -11.37969398 -0.16945707 4.06954369
C 18.56567201 -9.21676257 -0.1322149 4.0695436
C -17.32408811 11.37976035 0.16541952 4.06954369
C -16.13422216 12.06308298 0.17825552 4.06654961
C 17.26559696 11.46760469 0.20871068 4.06954369
C 16.07224716 12.14487357 0.21864598 4.06654961
C -13.60671548 13.52474778 0.20573194 4.06718889
C -12.4173673 14.2127916 0.21866884 4.06712942
C 13.53728804 13.59368034 0.23986612 4.06718889
C 12.34443184 14.27567417 0.24982984 4.06712942
C -9.89861309 15.67374052 0.24614383 4.06714993
C -8.7101214 16.36386086 0.25908164 4.06714995
C 9.81822892 15.72381213 0.27091878 4.06714994
C 8.62621871 16.40788726 0.2808628 4.06714994
C -5.00565372 18.51911686 0.29932008 4.06718895
C -6.19276632 17.82722182 0.28644047 4.06712935
C 6.10140227 17.85844346 0.30190595 4.06712935
C 4.91076213 18.54429982 0.31181608 4.06718895
C -2.48334182 19.98972815 0.32662861 4.0665496
C -1.30007539 20.68441585 0.3394761 4.06954386
C -0.05120472 19.99967568 0.32980612 3.96592992
C 2.38095183 20.00208111 0.33279071 4.0665496
C 1.19414351 20.6907498 0.34264214 4.06954386
H -19.52973002 9.75533116 0.13580273 0.94672537
H -19.50736462 5.466389 0.0657956 0.94812974
H -19.49111012 1.1839247 -0.00423708 0.94817864
H -19.48097716 -3.10063977 -0.07456091 0.94829355
H -19.47709575 -7.39322381 -0.14533015 0.94865697
H -16.07486102 -13.25069364 -0.23811657 0.9486571
H -12.34783743 -15.38137778 -0.26910688 0.94829372
H -8.63089243 -17.5135017 -0.3004649 0.94817871
H -4.91880934 -19.64989478 -0.33202979 0.94812976
H -1.20411889 -21.79479866 -0.3637655 0.94672538
H 1.31570626 -21.78839726 -0.36073849 0.94672539
H 19.47952872 9.85440327 0.18438893 0.94672537
H 5.01936411 -19.62464708 -0.32014014 0.94812977
H 19.47912394 5.56541529 0.1136482 0.94812973
H 8.72045923 -17.46941683 -0.27996627 0.94817871
H 19.48479725 1.28293549 0.04289405 0.94817865
H 12.42643856 -15.318429 -0.2400949 0.94829373
H 19.49660362 -3.00161559 -0.02803956 0.94829356
H 16.14250395 -13.16883185 -0.20044387 0.94865711
H 19.51470248 -7.29415663 -0.09929456 0.94865698
H -19.51469705 7.29421673 0.09562928 0.94865697
H -19.49659963 3.0016578 0.0254883 0.94829356
H -19.48479434 -1.28290528 -0.04472579 0.94817864
H -19.47912209 -5.56538873 -0.115195 0.94812972
H -19.47952764 -9.85437376 -0.18607422 0.94672536
H -18.21403549 -12.0331024 -0.2205853 0.94672558
H -14.48801888 -14.15829826 -0.2512951 0.94812978
H -10.77067084 -16.28551912 -0.28241712 0.94817874
H -7.05455538 -18.41909114 -0.31386627 0.94829381
H -3.33460869 -20.56209065 -0.34553948 0.94865719
H 3.43985562 -20.54488084 -0.33740721 0.94865719
H 19.47709724 7.39325046 0.1438318 0.94865698
H 7.14877958 -18.38300719 -0.29694327 0.94829382
H 19.48097951 3.10066761 0.07295699 0.94829356
H 10.85392158 -16.23057586 -0.25697451 0.94817875
H 19.49111321 -1.18388889 0.00208851 0.94817865
H 14.56032946 -14.08448901 -0.21731723 0.94812979
H 19.50736955 -5.46633716 -0.06892652 0.94812973
H 18.27541637 -11.94038644 -0.17788324 0.94672558
H 19.52973628 -9.75525806 -0.14025529 0.94672537
H -18.27540995 11.94046277 0.173238 0.94672558
H -16.1424981 13.16889984 0.1963055 0.9486571
H 18.21403598 12.03313057 0.21898254 0.94672558
H 16.07486097 13.25071581 0.23685022 0.9486571
H -14.56032436 14.08455101 0.21354188 0.94812979
H -12.42643389 15.318484 0.23674515 0.94829372
H 14.48801869 14.15831856 0.25013668 0.94812979
H 12.34783703 15.38139689 0.26800394 0.94829372
H -10.85391813 16.23062519 0.2539543 0.94817874
H -8.72045563 17.4694624 0.27718029 0.9481787
H 10.77067056 16.28554119 0.28114957 0.94817874
H 8.63089216 17.51352658 0.29899985 0.94817871
H -5.01936197 19.62469182 0.31740423 0.94812976
H -7.14877772 18.38305003 0.2942917 0.9482938
H 7.05455536 18.4191202 0.31216175 0.94829382
H 4.91880957 19.64992965 0.3299487 0.94812977
H -3.4398546 20.54492736 0.33452414 0.94865719
H -1.31570519 21.78845019 0.35752989 0.94672538
H 3.33460908 20.56213156 0.34311148 0.94865719
H 1.20411973 21.79484899 0.36073911 0.94672538