   24
Geometry Step: 0
    C      0.14744300      1.74619300      0.00000000      3.93986013
    C      0.33550700      0.33669300     -0.00000000      3.93985599
    C      1.65011300     -0.20530600     -0.00000000      3.93983035
    C      2.77673300      0.66232200     -0.00000000      3.93986629
    C      2.58864400      2.07185700      0.00000000      3.93989281
    C      1.27396900      2.61388600      0.00000000      3.93986505
    C      1.08503100      4.02857300      0.00000000      4.06685608
    C      0.92164200      5.24594900     -0.00000000      3.99283312
    C      0.74058400      6.60505900      0.00000000      4.00044892
    C      0.57933100      7.82775000     -0.00000000      4.00044473
    C      0.39937900      9.18698700     -0.00000000      3.99283611
    C      0.23776400     10.40459100      0.00000000      4.06684895
    C      3.71931000      2.94270000      0.00000000      4.06685125
    C      4.69284300      3.69157700     -0.00000000      3.99284738
    C      5.77950600      4.52759000     -0.00000000      4.00044604
    C      6.75704900      5.27944800     -0.00000000      4.00044986
    C      7.84357100      6.11565300      0.00000000      3.99284351
    C      8.81677800      6.86495900     -0.00000000      4.06685373
    C      4.09579800      0.11739200     -0.00000000      4.06685845
    C      5.22902100     -0.35631500      0.00000000      3.99283427
    C      6.49579700     -0.88071000     -0.00000000      4.00045181
    C      7.63591400     -1.35076600      0.00000000      4.00043652
    C      8.90410300     -1.87162100      0.00000000      3.99284505
    C     10.04099700     -2.33643400      0.00000000      4.06684359
