   36
Geometry Step: 0
    C      0.28497600      1.90480500      0.23990600      3.94040533
    C      0.28552000      0.48221400      0.24009000      3.94044422
    C      1.51755700     -0.22908000      0.23994500      3.94043936
    C      2.74953200      0.48225400      0.24020600      3.94046831
    C      2.74881200      1.90496600      0.24046500      3.94054061
    C      1.51683200      2.61636600      0.23999000      3.94046721
    C      3.98455400     -0.23141300      0.24024400      4.06528794
    C      5.04718900     -0.85054000      0.23997100      3.99339083
    C      6.23089200     -1.53739700      0.23983200      3.99878257
    C      7.30088600     -2.15864800      0.23974700      4.00159101
    C      8.48123600     -2.84077600      0.23980700      4.00050053
    C      9.55468000     -3.45960900      0.23999100      4.00049470
    C     10.73579100     -4.14035700      0.24026700      4.00159385
    C     11.80827500     -4.75729100      0.24061700      3.99878070
    C     12.99515400     -5.43850900      0.24098500      3.99341491
    C     14.06392200     -6.04677400      0.24136800      4.06524121
    C      3.98354700      2.61826400      0.24126100      4.06521937
    C      5.04901700      3.23210400      0.24250300      3.99345734
    C      6.23405700      3.91602900      0.24351500      3.99875434
    C      7.30542600      4.53455700      0.24438200      4.00161444
    C      8.48539700      5.21683300      0.24480700      4.00049259
    C      9.55752200      5.83770100      0.24478000      4.00051406
    C     10.73721600      6.52047100      0.24442000      4.00159025
    C     11.80789900      7.14026100      0.24366000      3.99878605
    C     12.99262400      7.82483000      0.24292600      3.99343084
    C     14.05789600      8.43906500      0.24206600      4.06524803
    C      1.51563000      4.04255700      0.23948400      4.06526284
    C      1.50503000      5.27227400      0.23857100      3.99340496
    C      1.49849300      6.64072600      0.23785800      3.99878954
    C      1.49120100      7.87791500      0.23726500      4.00158515
    C      1.48866300      9.24107000      0.23700300      4.00051116
    C      1.48959500     10.48002300      0.23702800      4.00048268
    C      1.49201100     11.84303800      0.23731200      4.00158876
    C      1.49641100     13.08014900      0.23788900      3.99877111
    C      1.50107600     14.44842000      0.23853200      3.99340518
    C      1.50893600     15.67805000      0.23934200      4.06524803
