  540
opt dftb+ matsci scc 10-5 tempelect 300K
    C    -21.02357383      0.67889517     -0.00000234      4.06625212
    C    -19.77340961      2.82674527      0.00000159      4.09054003
    C    -18.53272341      4.97457402      0.00000676      4.09298954
    C    -17.29447541      7.12271603      0.00000892      4.09473569
    C    -16.05573601      9.26978656      0.00000863      4.09541916
    C    -14.81568644     11.41610121      0.00000998      4.09473539
    C    -13.57446287     13.56252605      0.00000906      4.09298923
    C    -12.33472996     15.71090562     -0.00000213      4.09053988
    C    -11.09971663     17.86750305     -0.00001861      4.06625213
    C    -19.79095491     -1.44044965     -0.00000173      3.96388220
    C    -18.54372217      0.70689549     -0.00000013      3.99873795
    C    -17.30513861      2.85001298      0.00000177      4.00108454
    C    -16.06922991      4.99288844      0.00000315      4.00117159
    C    -14.83303816      7.13558102      0.00000310      4.00075002
    C    -13.59611074      9.27799969      0.00000364      4.00075007
    C    -12.35857828     11.41991874      0.00000517      4.00117161
    C    -11.12074638     13.56168416      0.00000300      4.00108444
    C     -9.88404307     15.70588632     -0.00000427      3.99873784
    C     -8.64800222     17.85969189     -0.00001154      3.96388210
    C    -18.55357283     -3.57482367      0.00000107      3.96229720
    C    -17.30721521     -1.42959071     -0.00000022      3.99911674
    C    -16.06794426      0.71144608     -0.00000032      4.00054080
    C    -14.83134710      2.85305528     -0.00000011      4.00061203
    C    -13.59575446      4.99470025     -0.00000059      4.00075999
    C    -12.35991227      7.13599948     -0.00000118      4.00091309
    C    -11.12341170      9.27691861      0.00000006      4.00075993
    C     -9.88648768     11.41779471      0.00000176      4.00061198
    C     -8.65009717     13.55952234      0.00000103      4.00054073
    C     -7.41554003     15.70327946     -0.00000153      3.99911670
    C     -6.18089218     17.85527226     -0.00000217      3.96229728
    C    -17.31924622     -5.71520228      0.00000100      3.96110387
    C    -16.07184330     -3.57023825      0.00000058      3.99816039
    C    -14.83179611     -1.42899347     -0.00000022      3.99978167
    C    -13.59461515      0.71249027     -0.00000089      4.00008779
    C    -12.35863459      2.85387198     -0.00000146      4.00013095
    C    -11.12308263      4.99488044     -0.00000209      3.99999987
    C     -9.88723380      7.13543124     -0.00000228      3.99999987
    C     -8.65084076      9.27595380     -0.00000110      4.00013091
    C     -7.41433946     11.41703367      0.00000060      4.00008769
    C     -6.17835003     13.55920394      0.00000136      3.99978159
    C     -4.94400134     15.70373828      0.00000157      3.99816042
    C     -3.71010972     17.85650196      0.00000187      3.96110400
    C    -16.08380721     -7.85764507     -0.00000012      3.96056626
    C    -14.83684376     -5.71156611      0.00000021      3.99814021
    C    -13.59648568     -3.56969359      0.00000010      3.99982267
    C    -12.35877072     -1.42813308     -0.00000030      4.00007886
    C    -11.12241658      0.71306957     -0.00000048      4.00002521
    C     -9.88664066      2.85387149     -0.00000060      4.00003286
    C     -8.65080838      4.99454538     -0.00000091      4.00009043
    C     -7.41484524      7.13514389     -0.00000101      4.00003284
    C     -6.17874340      9.27575731     -0.00000043      4.00002520
    C     -4.94258412     11.41707133      0.00000047      4.00007882
    C     -3.70679563     13.55974316      0.00000114      3.99982261
    C     -2.47205914     15.70486098      0.00000123      3.99814022
    C     -1.23698388     17.85780200      0.00000064      3.96056631
    C    -14.84682082    -10.00016651     -0.00000017      3.96056629
    C    -13.60122041     -7.85266963     -0.00000015      3.99818173
    C    -12.36134132     -5.71012910     -0.00000006      3.99980057
    C    -11.12349619     -3.56862147      0.00000004      4.00004240
    C     -9.88671724     -1.42766052      0.00000008      4.00006085
    C     -8.65053254      0.71321783      0.00000026      4.00007926
    C     -7.41476822      2.85395743      0.00000037      4.00003483
    C     -6.17898461      4.99439625      0.00000022      4.00003484
    C     -4.94293073      7.13496879     -0.00000003      4.00007928
    C     -3.70696723      9.27597457     -0.00000007      4.00006083
    C     -2.47123011     11.41753596      0.00000003      4.00004236
    C     -1.23555324     13.56029456      0.00000008      3.99980051
    C     -0.00000018     15.70533241     -0.00000003      3.99818169
    C      1.23698316     17.85780214     -0.00000026      3.96056627
    C    -13.60912838    -12.14130916      0.00000002      3.96110396
    C    -12.36477983     -9.99330171     -0.00000007      3.99814025
    C    -11.12578624     -7.85017092     -0.00000006      3.99980058
    C     -9.88812572     -5.70891151     -0.00000000      4.00005316
    C     -8.65112511     -3.56800636      0.00000009      4.00008440
    C     -7.41489330     -1.42718046      0.00000014      4.00005773
    C     -6.17898521      0.71332097      0.00000026      4.00004814
    C     -4.94302473      2.85385507      0.00000035      4.00007181
    C     -3.70724662      4.99449458      0.00000026      4.00004816
    C     -2.47147109      7.13507283      0.00000006      4.00005775
    C     -1.23557704      9.27609324     -0.00000012      4.00008437
    C      0.00000011     11.41781912     -0.00000022      4.00005309
    C      1.23555307     13.56029473     -0.00000025      3.99980050
    C      2.47205871     15.70486122     -0.00000022      3.99814020
    C      3.71010918     17.85650231     -0.00000008      3.96110393
    C    -12.37266746    -14.28045640      0.00000003      3.96229726
    C    -11.12783352    -12.13350617      0.00000005      3.99816043
    C     -9.88968528     -9.99005422      0.00000003      3.99982267
    C     -8.65226400     -7.84891793      0.00000001      4.00004238
    C     -7.41554752     -5.70808847     -0.00000000      4.00008441
    C     -6.17927153     -3.56760226      0.00000000      4.00005979
    C     -4.94314440     -1.42707920     -0.00000004      4.00006695
    C     -3.70733210      0.71350073     -0.00000007      4.00005373
    C     -2.47157592      2.85389098     -0.00000003      4.00005374
    C     -1.23568420      4.99442545      0.00000002      4.00006696
    C      0.00000019      7.13520405      0.00000002      4.00005978
    C      1.23557711      9.27609314     -0.00000003      4.00008437
    C      2.47122989     11.41753601     -0.00000005      4.00004232
    C      3.70679518     13.55974332     -0.00000002      3.99982261
    C      4.94400081     15.70373853      0.00000003      3.99816042
    C      6.18089198     17.85527228      0.00000005      3.96229728
    C    -11.14293494    -16.41924675     -0.00000001      3.96388214
    C     -9.89166289    -14.27369220     -0.00000000      3.99911679
    C     -8.65343883    -12.13021324      0.00000001      3.99978165
    C     -7.41618307     -9.98894007      0.00000002      4.00007883
    C     -6.17974858     -7.84831491     -0.00000000      4.00006086
    C     -4.94342161     -5.70789236     -0.00000004      4.00005776
    C     -3.70745975     -3.56734581     -0.00000007      4.00006697
    C     -2.47164403     -1.42700286     -0.00000009      4.00005380
    C     -1.23571798      0.71344172     -0.00000010      4.00006123
    C     -0.00000002      2.85400664     -0.00000009      4.00005378
    C      1.23568437      4.99442533     -0.00000005      4.00006696
    C      2.47147116      7.13507275      0.00000001      4.00005773
    C      3.70696684      9.27597457      0.00000005      4.00006082
    C      4.94258363     11.41707138      0.00000007      4.00007883
    C      6.17834974     13.55920422      0.00000005      3.99978163
    C      7.41553995     15.70327947      0.00000003      3.99911681
    C      8.64800223     17.85969132     -0.00000000      3.96388228
    C     -9.92383518    -18.54639600      0.00000000      4.06625220
    C     -8.65966445    -16.41277994     -0.00000001      3.99873797
    C     -7.41783712    -14.27096713     -0.00000002      4.00054082
    C     -6.18027069    -12.12952271     -0.00000003      4.00008779
    C     -4.94367082     -9.98882590     -0.00000002      4.00002521
    C     -3.70760096     -7.84818598      0.00000000      4.00007929
    C     -2.47173800     -5.70781518      0.00000002      4.00004818
    C     -1.23575583     -3.56739139      0.00000004      4.00005375
    C     -0.00000009     -1.42688297      0.00000005      4.00006124
    C      1.23571770      0.71344171      0.00000004      4.00006123
    C      2.47157568      2.85389108      0.00000003      4.00005372
    C      3.70724640      4.99449483      0.00000002      4.00004815
    C      4.94293049      7.13496896      0.00000000      4.00007928
    C      6.17874311      9.27575714     -0.00000002      4.00002521
    C      7.41433923     11.41703341     -0.00000003      4.00008779
    C      8.65009731     13.55952201     -0.00000003      4.00054086
    C      9.88404312     15.70588526     -0.00000002      3.99873812
    C     11.09971638     17.86750125     -0.00000000      4.06625219
    C     -7.43866348    -18.53764440     -0.00000001      4.09054019
    C     -6.18438122    -16.41169142      0.00000002      4.00108456
    C     -4.94485277    -14.27084551      0.00000004      4.00061214
    C     -3.70779041    -12.12982220      0.00000005      4.00013099
    C     -2.47179404     -9.98901303      0.00000005      4.00003289
    C     -1.23578314     -7.84835246      0.00000004      4.00003484
    C      0.00000019     -5.70770942      0.00000004      4.00007184
    C      1.23575580     -3.56739135      0.00000005      4.00005374
    C      2.47164348     -1.42700302      0.00000005      4.00005376
    C      3.70733120      0.71350074      0.00000005      4.00005371
    C      4.94302407      2.85385540      0.00000004      4.00007183
    C      6.17898421      4.99439658      0.00000004      4.00003483
    C      7.41484523      7.13514382      0.00000004      4.00003287
    C      8.65084104      9.27595343      0.00000004      4.00013100
    C      9.88648796     11.41779433      0.00000003      4.00061213
    C     11.12074666     13.56168296      0.00000001      4.00108476
    C     12.33472974     15.71090351     -0.00000001      4.09054035
    C     -4.95824950    -18.53709093      0.00000003      4.09298988
    C     -3.71064456    -16.41279954      0.00000003      4.00117159
    C     -2.47233887    -14.27161315      0.00000000      4.00076015
    C     -1.23584733    -12.13030700     -0.00000002      3.99999990
    C      0.00000010     -9.98908814     -0.00000003      4.00009045
    C      1.23578345     -7.84835241     -0.00000004      4.00003485
    C      2.47173798     -5.70781520     -0.00000005      4.00004814
    C      3.70745929     -3.56734617     -0.00000006      4.00006695
    C      4.94314340     -1.42707947     -0.00000006      4.00006696
    C      6.17898436      0.71332110     -0.00000005      4.00004816
    C      7.41476795      2.85395786     -0.00000004      4.00003485
    C      8.65080825      4.99454557     -0.00000002      4.00009045
    C      9.88723370      7.13543081     -0.00000001      3.99999985
    C     11.12341158      9.27691799      0.00000001      4.00076014
    C     12.35857814     11.41991762      0.00000004      4.00117183
    C     13.57446235     13.56252406      0.00000003      4.09299051
    C     -2.47878368    -18.53880692      0.00000001      4.09473610
    C     -1.23692494    -16.41357293     -0.00000010      4.00074996
    C     -0.00000011    -14.27199294     -0.00000014      4.00091322
    C      1.23584738    -12.13030719     -0.00000017      3.99999991
    C      2.47179383     -9.98901307     -0.00000018      4.00003284
    C      3.70760078     -7.84818603     -0.00000016      4.00007928
    C      4.94342128     -5.70789265     -0.00000019      4.00005776
    C      6.17927104     -3.56760261     -0.00000022      4.00005979
    C      7.41489288     -1.42718071     -0.00000019      4.00005778
    C      8.65053251      0.71321797     -0.00000016      4.00007932
    C      9.88664063      2.85387173     -0.00000018      4.00003284
    C     11.12308211      4.99488017     -0.00000017      3.99999987
    C     12.35991128      7.13599879     -0.00000014      4.00091328
    C     13.59610972      9.27799893     -0.00000011      4.00075017
    C     14.81568534     11.41609986      0.00000001      4.09473742
    C     -0.00000047    -18.53956283     -0.00000022      4.09541935
    C      1.23692446    -16.41357304     -0.00000019      4.00075003
    C      2.47233853    -14.27161336     -0.00000007      4.00076003
    C      3.70778996    -12.12982228      0.00000002      4.00013099
    C      4.94367041     -9.98882579      0.00000011      4.00002524
    C      6.17974847     -7.84831475      0.00000012      4.00006084
    C      7.41554732     -5.70808851      0.00000010      4.00008442
    C      8.65112508     -3.56800670      0.00000010      4.00008442
    C      9.88671739     -1.42766077      0.00000012      4.00006086
    C     11.12241657      0.71306951      0.00000011      4.00002521
    C     12.35863371      2.85387153      0.00000002      4.00013098
    C     13.59575303      4.99469940     -0.00000007      4.00076009
    C     14.83303654      7.13558044     -0.00000019      4.00075024
    C     16.05573457      9.26978586     -0.00000022      4.09542114
    C      2.47878284    -18.53880720     -0.00000008      4.09473525
    C      3.71064394    -16.41279985      0.00000045      4.00117161
    C      4.94485221    -14.27084565      0.00000050      4.00061208
    C      6.18027029    -12.12952266      0.00000052      4.00008775
    C      7.41618307     -9.98893955      0.00000066      4.00007885
    C      8.65226414     -7.84891753      0.00000079      4.00004237
    C      9.88812554     -5.70891133      0.00000081      4.00005311
    C     11.12349588     -3.56862150      0.00000079      4.00004236
    C     12.35877033     -1.42813296      0.00000066      4.00007885
    C     13.59461428      0.71248999      0.00000052      4.00008775
    C     14.83134528      2.85305419      0.00000050      4.00061207
    C     16.06922812      4.99288735      0.00000045      4.00117190
    C     17.29447427      7.12271531     -0.00000008      4.09473689
    C      4.95824898    -18.53709114      0.00000125      4.09298896
    C      6.18438078    -16.41169138      0.00000110      4.00108435
    C      7.41783713    -14.27096699      0.00000061      4.00054079
    C      8.65343893    -12.13021270      0.00000032      3.99978161
    C      9.88968557     -9.99005380      0.00000060      3.99982261
    C     11.12578582     -7.85017043      0.00000091      3.99980052
    C     12.36134040     -5.71012862      0.00000091      3.99980051
    C     13.59648437     -3.56969288      0.00000060      3.99982260
    C     14.83179489     -1.42899281      0.00000032      3.99978161
    C     16.06794281      0.71144569      0.00000061      4.00054082
    C     17.30513670      2.85001173      0.00000110      4.00108467
    C     18.53272238      4.97457287      0.00000125      4.09298992
    C      7.43866340    -18.53764417      0.00000177      4.09053966
    C      8.65966475    -16.41277932      0.00000006      3.99873768
    C      9.89166356    -14.27369111     -0.00000098      3.99911672
    C     11.12783417    -12.13350524     -0.00000129      3.99816040
    C     12.36477966     -9.99330102     -0.00000071      3.99814020
    C     13.60121927     -7.85266921     -0.00000039      3.99818170
    C     14.83684233     -5.71156559     -0.00000071      3.99814022
    C     16.07184155     -3.57023721     -0.00000129      3.99816042
    C     17.30721378     -1.42959002     -0.00000098      3.99911677
    C     18.54372073      0.70689501      0.00000006      3.99873788
    C     19.77340816      2.82674426      0.00000177      4.09053998
    C      9.92383568    -18.54639467     -0.00000054      4.06625198
    C     11.14293528    -16.41924485     -0.00000245      3.96388207
    C     12.37266770    -14.28045455     -0.00000412      3.96229725
    C     13.60912796    -12.14130773     -0.00000373      3.96110400
    C     14.84681965    -10.00016578     -0.00000292      3.96056640
    C     16.08380591     -7.85764461     -0.00000292      3.96056645
    C     17.31924505     -5.71520130     -0.00000373      3.96110405
    C     18.55357137     -3.57482227     -0.00000412      3.96229729
    C     19.79095341     -1.44044903     -0.00000245      3.96388226
    C     21.02357209      0.67889455     -0.00000054      4.06625197
    C    -21.02357366     -0.67889501     -0.00000391      4.06625197
    C    -19.79095494      1.44044982     -0.00000009      3.96388209
    C    -18.55357237      3.57482377      0.00000346      3.96229723
    C    -17.31924535      5.71520210      0.00000656      3.96110403
    C    -16.08380611      7.85764464      0.00000692      3.96056650
    C    -14.84681973     10.00016598      0.00000737      3.96056652
    C    -13.60912755     12.14130866      0.00000874      3.96110411
    C    -12.37266702     14.28045609      0.00000410      3.96229730
    C    -11.14293477     16.41924677     -0.00000804      3.96388205
    C     -9.92383493     18.54639584     -0.00002061      4.06625206
    C    -19.77340966     -2.82674516      0.00000012      4.09053950
    C    -18.54372233     -0.70689534     -0.00000087      3.99873761
    C    -17.30721504      1.42959112      0.00000039      3.99911658
    C    -16.07184264      3.57023852      0.00000161      3.99816030
    C    -14.83684280      5.71156598      0.00000171      3.99814011
    C    -13.60121943      7.85266919      0.00000145      3.99818161
    C    -12.36477908      9.99330111      0.00000281      3.99814014
    C    -11.12783318     12.13350559      0.00000386      3.99816033
    C     -9.89166288     14.27369194      0.00000028      3.99911664
    C     -8.65966437     16.41278009     -0.00000564      3.99873766
    C     -7.43866331     18.53764446     -0.00000849      4.09053971
    C    -18.53272367     -4.97457393      0.00000168      4.09298821
    C    -17.30513934     -2.85001285      0.00000047      4.00108412
    C    -16.06794447     -0.71144509     -0.00000027      4.00054069
    C    -14.83179602      1.42899486     -0.00000063      3.99978160
    C    -13.59648564      3.56969473     -0.00000096      3.99982259
    C    -12.36134156      5.71012972     -0.00000173      3.99980051
    C    -11.12578679      7.85017098     -0.00000169      3.99980052
    C     -9.88968607      9.99005377      0.00000004      3.99982260
    C     -8.65343974     12.13021259      0.00000141      3.99978158
    C     -7.41783782     14.27096691      0.00000057      4.00054072
    C     -6.18438143     16.41169208     -0.00000049      4.00108417
    C     -4.95824945     18.53709120      0.00000069      4.09298870
    C    -17.29447582     -7.12271604      0.00000028      4.09473342
    C    -16.06923111     -4.99288864      0.00000067      4.00117122
    C    -14.83134754     -2.85305432      0.00000013      4.00061196
    C    -13.59461509     -0.71248838     -0.00000056      4.00008774
    C    -12.35877091      1.42813504     -0.00000098      4.00007884
    C    -11.12349695      3.56862296     -0.00000148      4.00004240
    C     -9.88812698      5.70891235     -0.00000198      4.00005316
    C     -8.65226554      7.84891800     -0.00000171      4.00004238
    C     -7.41618466      9.98893942     -0.00000039      4.00007881
    C     -6.18027205     12.12952185      0.00000096      4.00008774
    C     -4.94485362     14.27084552      0.00000155      4.00061208
    C     -3.71064480     16.41280078      0.00000176      4.00117125
    C     -2.47878367     18.53880740      0.00000142      4.09473406
    C    -16.05573647     -9.26978666     -0.00000029      4.09541648
    C    -14.83303960     -7.13558159     -0.00000003      4.00074976
    C    -13.59575490     -4.99469975      0.00000009      4.00075988
    C    -12.35863415     -2.85387035     -0.00000002      4.00013092
    C    -11.12241626     -0.71306761     -0.00000022      4.00002520
    C     -9.88671758      1.42766218     -0.00000019      4.00006084
    C     -8.65112605      3.56800747     -0.00000027      4.00008440
    C     -7.41554883      5.70808888     -0.00000053      4.00008441
    C     -6.17975003      7.84831456     -0.00000052      4.00006085
    C     -4.94367217      9.98882483     -0.00000005      4.00002520
    C     -3.70779141     12.12982114      0.00000054      4.00013097
    C     -2.47233937     14.27161338      0.00000085      4.00076007
    C     -1.23692502     16.41357458      0.00000064      4.00074971
    C     -0.00000045     18.53956340     -0.00000010      4.09541691
    C    -14.81568686    -11.41610135     -0.00000004      4.09473322
    C    -13.59611211     -9.27800046     -0.00000015      4.00074980
    C    -12.35991252     -7.13599950     -0.00000010      4.00091296
    C    -11.12308172     -4.99487937     -0.00000001      3.99999986
    C     -9.88663969     -2.85386995      0.00000009      4.00003282
    C     -8.65053220     -0.71321642      0.00000021      4.00007922
    C     -7.41489359      1.42718150      0.00000043      4.00005770
    C     -6.17927223      3.56760277      0.00000047      4.00005975
    C     -4.94342251      5.70789226      0.00000024      4.00005773
    C     -3.70760186      7.84818518      0.00000001      4.00007925
    C     -2.47179473      9.98901160     -0.00000009      4.00003285
    C     -1.23584767     12.13030581     -0.00000012      3.99999989
    C     -0.00000009     14.27199327     -0.00000017      4.00091311
    C      1.23692457     16.41357470     -0.00000026      4.00074978
    C      2.47878287     18.53880769     -0.00000020      4.09473322
    C    -13.57446318    -13.56252616      0.00000005      4.09298801
    C    -12.35857927    -11.41991954      0.00000001      4.00117123
    C    -11.12341165     -9.27691909     -0.00000004      4.00075984
    C     -9.88723254     -7.13543083     -0.00000003      3.99999985
    C     -8.65080695     -4.99454444      0.00000002      4.00009038
    C     -7.41476736     -2.85395644      0.00000008      4.00003478
    C     -6.17898497     -0.71332012      0.00000010      4.00004809
    C     -4.94314458      1.42707974      0.00000016      4.00006689
    C     -3.70746017      3.56734589      0.00000019      4.00006692
    C     -2.47173846      5.70781475      0.00000012      4.00004813
    C     -1.23578344      7.84835142     -0.00000002      4.00003479
    C      0.00000011      9.98908658     -0.00000013      4.00009040
    C      1.23584775     12.13030599     -0.00000018      3.99999990
    C      2.47233906     14.27161360     -0.00000016      4.00075995
    C      3.71064421     16.41280111     -0.00000009      4.00117126
    C      4.95824900     18.53709143      0.00000003      4.09298779
    C    -12.33473018    -15.71090559     -0.00000000      4.09053941
    C    -11.12074691    -13.56168474      0.00000003      4.00108404
    C     -9.88648731    -11.41779545      0.00000005      4.00061192
    C     -8.65083932     -9.27595407      0.00000004      4.00013088
    C     -7.41484358     -7.13514365      0.00000001      4.00003280
    C     -6.17898346     -4.99439584     -0.00000002      4.00003479
    C     -4.94302416     -2.85385462     -0.00000005      4.00007176
    C     -3.70733195     -0.71350031     -0.00000010      4.00005368
    C     -2.47164413      1.42700306     -0.00000011      4.00005374
    C     -1.23575598      3.56739125     -0.00000006      4.00005370
    C      0.00000018      5.70770888     -0.00000000      4.00007179
    C      1.23578375      7.84835137      0.00000002      4.00003480
    C      2.47179453      9.98901164      0.00000001      4.00003280
    C      3.70779098     12.12982122      0.00000002      4.00013097
    C      4.94485309     14.27084567      0.00000005      4.00061202
    C      6.18438105     16.41169206      0.00000006      4.00108396
    C      7.43866330     18.53764425      0.00000002      4.09053919
    C    -11.09971676    -17.86750289     -0.00000000      4.06625200
    C     -9.88404335    -15.70588645     -0.00000001      3.99873754
    C     -8.65009670    -13.55952292     -0.00000002      4.00054062
    C     -7.41433805    -11.41703443     -0.00000002      4.00008765
    C     -6.17874175     -9.27575783     -0.00000001      4.00002519
    C     -4.94292951     -7.13496902     -0.00000002      4.00007924
    C     -3.70724593     -4.99449461     -0.00000003      4.00004811
    C     -2.47157563     -2.85389086     -0.00000004      4.00005369
    C     -1.23571793     -0.71344154     -0.00000004      4.00006118
    C     -0.00000009      1.42688304     -0.00000005      4.00006119
    C      1.23575594      3.56739121     -0.00000004      4.00005369
    C      2.47173842      5.70781477     -0.00000002      4.00004809
    C      3.70760167      7.84818523      0.00000001      4.00007924
    C      4.94367174      9.98882472      0.00000003      4.00002522
    C      6.18027166     12.12952182      0.00000003      4.00008771
    C      7.41783786     14.27096678      0.00000001      4.00054069
    C      8.65966473     16.41277947     -0.00000001      3.99873737
    C      9.92383550     18.54639449     -0.00000001      4.06625184
    C     -8.64800241    -17.85969191     -0.00000001      3.96388201
    C     -7.41553989    -15.70327942     -0.00000001      3.99911655
    C     -6.17834903    -13.55920446     -0.00000001      3.99978152
    C     -4.94258275    -11.41707232      0.00000001      4.00007881
    C     -3.70696613     -9.27597550      0.00000002      4.00006082
    C     -2.47147047     -7.13507341      0.00000004      4.00005772
    C     -1.23568395     -4.99442569      0.00000005      4.00006690
    C     -0.00000001     -2.85400663      0.00000006      4.00005372
    C      1.23571765     -0.71344154      0.00000007      4.00006118
    C      2.47164358      1.42700322      0.00000006      4.00005370
    C      3.70745970      3.56734625      0.00000004      4.00006690
    C      4.94342216      5.70789255      0.00000003      4.00005773
    C      6.17974989      7.84831439      0.00000000      4.00006083
    C      7.41618463      9.98893890     -0.00000002      4.00007884
    C      8.65343984     12.13021204     -0.00000002      3.99978154
    C      9.89166358     14.27369084     -0.00000002      3.99911657
    C     11.14293516     16.41924485     -0.00000001      3.96388198
    C     -6.18089216    -17.85527181      0.00000001      3.96229731
    C     -4.94400102    -15.70373773      0.00000004      3.99816032
    C     -3.70679482    -13.55974360      0.00000005      3.99982254
    C     -2.47122936    -11.41753723      0.00000004      4.00004236
    C     -1.23557667     -9.27609444      0.00000003      4.00008438
    C      0.00000019     -7.13520473      0.00000002      4.00005974
    C      1.23568415     -4.99442557      0.00000002      4.00006691
    C      2.47157540     -2.85389096      0.00000002      4.00005366
    C      3.70733106     -0.71350034      0.00000002      4.00005366
    C      4.94314358      1.42707998      0.00000002      4.00006691
    C      6.17927171      3.56760312      0.00000003      4.00005975
    C      7.41554861      5.70808893      0.00000004      4.00008442
    C      8.65226564      7.84891760      0.00000004      4.00004237
    C      9.88968634      9.99005333      0.00000005      3.99982254
    C     11.12783383     12.13350464      0.00000004      3.99816030
    C     12.37266725     14.28045419      0.00000001      3.96229729
    C     -3.71010968    -17.85650101      0.00000004      3.96110415
    C     -2.47205894    -15.70485998     -0.00000001      3.99814012
    C     -1.23555296    -13.56029497     -0.00000005      3.99980045
    C      0.00000011    -11.41782050     -0.00000007      4.00005309
    C      1.23557674     -9.27609433     -0.00000010      4.00008437
    C      2.47147055     -7.13507332     -0.00000010      4.00005769
    C      3.70724573     -4.99449486     -0.00000012      4.00004810
    C      4.94302352     -2.85385497     -0.00000013      4.00007178
    C      6.17898413     -0.71332029     -0.00000012      4.00004811
    C      7.41489316      1.42718173     -0.00000010      4.00005775
    C      8.65112599      3.56800779     -0.00000010      4.00008442
    C      9.88812677      5.70891216     -0.00000007      4.00005311
    C     11.12578632      7.85017047     -0.00000004      3.99980046
    C     12.36477887      9.99330040     -0.00000001      3.99814009
    C     13.60912708     12.14130717      0.00000004      3.96110416
    C     -1.23698388    -17.85780071     -0.00000010      3.96056653
    C     -0.00000020    -15.70533121     -0.00000018      3.99818158
    C      1.23555276    -13.56029515     -0.00000018      3.99980044
    C      2.47122912    -11.41753728     -0.00000017      4.00004233
    C      3.70696574     -9.27597551     -0.00000012      4.00006081
    C      4.94292928     -7.13496919     -0.00000012      4.00007924
    C      6.17898309     -4.99439617     -0.00000018      4.00003478
    C      7.41476711     -2.85395690     -0.00000018      4.00003480
    C      8.65053218     -0.71321657     -0.00000013      4.00007928
    C      9.88671772      1.42766241     -0.00000012      4.00006085
    C     11.12349661      3.56862298     -0.00000017      4.00004235
    C     12.36134058      5.71012924     -0.00000018      3.99980045
    C     13.60121823      7.85266877     -0.00000018      3.99818159
    C     14.84681846     10.00016519     -0.00000010      3.96056663
    C      1.23698311    -17.85780084     -0.00000025      3.96056649
    C      2.47205847    -15.70486021     -0.00000001      3.99814010
    C      3.70679433    -13.55974376      0.00000012      3.99982254
    C      4.94258225    -11.41707237      0.00000020      4.00007882
    C      6.17874148     -9.27575766      0.00000030      4.00002520
    C      7.41484360     -7.13514358      0.00000034      4.00003283
    C      8.65080684     -4.99454464      0.00000031      4.00009039
    C      9.88663968     -2.85387021      0.00000034      4.00003280
    C     11.12241626     -0.71306757      0.00000030      4.00002520
    C     12.35877051      1.42813491      0.00000021      4.00007883
    C     13.59648428      3.56969404      0.00000012      3.99982252
    C     14.83684130      5.71156549     -0.00000001      3.99814012
    C     16.08380468      7.85764416     -0.00000025      3.96056668
    C      3.71010908    -17.85650133      0.00000052      3.96110407
    C      4.94400044    -15.70373796      0.00000076      3.99816032
    C      6.17834871    -13.55920472      0.00000069      3.99978156
    C      7.41433783    -11.41703416      0.00000069      4.00008775
    C      8.65083962     -9.27595371      0.00000084      4.00013097
    C      9.88723249     -7.13543040      0.00000101      3.99999984
    C     11.12308124     -4.99487911      0.00000101      3.99999986
    C     12.35863330     -2.85386991      0.00000084      4.00013095
    C     13.59461423     -0.71248811      0.00000069      4.00008771
    C     14.83179477      1.42899423      0.00000069      3.99978153
    C     16.07184082      3.57023753      0.00000076      3.99816033
    C     17.31924404      5.71520115      0.00000052      3.96110421
    C      6.18089189    -17.85527181      0.00000156      3.96229730
    C      7.41553975    -15.70327942      0.00000068      3.99911666
    C      8.65009681    -13.55952258      0.00000004      4.00054075
    C      9.88648760    -11.41779508      0.00000002      4.00061206
    C     11.12341156     -9.27691848      0.00000044      4.00076005
    C     12.35991158     -7.13599882      0.00000064      4.00091315
    C     13.59575353     -4.99469888      0.00000044      4.00075999
    C     14.83134577     -2.85305319      0.00000002      4.00061200
    C     16.06794303     -0.71144465      0.00000004      4.00054070
    C     17.30721358      1.42959051      0.00000068      3.99911661
    C     18.55357080      3.57482245      0.00000156      3.96229732
    C      8.64800235    -17.85969134      0.00000047      3.96388218
    C      9.88404335    -15.70588539     -0.00000101      3.99873781
    C     11.12074719    -13.56168356     -0.00000210      4.00108437
    C     12.35857917    -11.41991845     -0.00000185      4.00117146
    C     13.59611116     -9.27799973     -0.00000120      4.00074990
    C     14.83303807     -7.13558102     -0.00000120      4.00074998
    C     16.06922942     -4.99288752     -0.00000185      4.00117154
    C     17.30513750     -2.85001154     -0.00000210      4.00108425
    C     18.54372092     -0.70689477     -0.00000101      3.99873754
    C     19.79095337      1.44044934      0.00000047      3.96388215
    C     11.09971646    -17.86750111     -0.00000177      4.06625206
    C     12.33472996    -15.71090353     -0.00000456      4.09053988
    C     13.57446270    -13.56252424     -0.00000509      4.09298931
    C     14.81568585    -11.41610008     -0.00000410      4.09473527
    C     16.05573519     -9.26978602     -0.00000369      4.09541850
    C     17.29447484     -7.12271533     -0.00000410      4.09473465
    C     18.53272279     -4.97457273     -0.00000509      4.09298863
    C     19.77340831     -2.82674403     -0.00000456      4.09053946
    C     21.02357195     -0.67889422     -0.00000177      4.06625182
    H    -21.98521859      1.22319047     -0.00000259      0.94649175
    H    -20.72998782      3.37931358      0.00000084      0.94716617
    H    -19.48999223      5.52577296      0.00000919      0.94693988
    H    -18.25150174      7.67434623      0.00001214      0.94682801
    H    -17.01237386      9.82210278      0.00001133      0.94678980
    H    -15.77192520     11.96909730      0.00001240      0.94682803
    H    -14.53045031     14.11594639      0.00001174      0.94693990
    H    -13.29155758     16.26304288     -0.00000404      0.94716613
    H    -12.05191062     18.42816630     -0.00002559      0.94649171
    H     -9.93328144    -19.65135161      0.00000001      0.94649171
    H     12.05191016     18.42816403      0.00000001      0.94649181
    H     -7.43841191    -19.64234877     -0.00000001      0.94716604
    H     13.29155628     16.26304038     -0.00000001      0.94716615
    H     -4.95953038    -19.64170848      0.00000000      0.94693977
    H     14.53044806     14.11594375      0.00000000      0.94693983
    H     -2.47957209    -19.64342931      0.00000005      0.94682787
    H     15.77192269     11.96909448      0.00000005      0.94682791
    H     -0.00000105    -19.64419107     -0.00000014      0.94678964
    H     17.01237192      9.82210009     -0.00000014      0.94678970
    H      2.47957053    -19.64342976     -0.00000028      0.94682788
    H     18.25150054      7.67434458     -0.00000028      0.94682793
    H      4.95953002    -19.64170888      0.00000134      0.94693978
    H     19.48999069      5.52577227      0.00000134      0.94693980
    H      7.43841254    -19.64234872      0.00000278      0.94716603
    H     20.72998548      3.37931298      0.00000278      0.94716612
    H      9.93328217    -19.65135033     -0.00000063      0.94649173
    H     21.98521602      1.22318991     -0.00000063      0.94649178
    H    -21.98521815     -1.22319051     -0.00000705      0.94649177
    H     -9.93328088     19.65135128     -0.00002942      0.94649174
    H    -20.72998786     -3.37931323      0.00000090      0.94716619
    H     -7.43841196     19.64234863     -0.00001202      0.94716605
    H    -19.48999248     -5.52577252      0.00000225      0.94693996
    H     -4.95953067     19.64170844      0.00000080      0.94693984
    H    -18.25150201     -7.67434590     -0.00000007      0.94682812
    H     -2.47957231     19.64342934      0.00000095      0.94682797
    H    -17.01237403     -9.82210267     -0.00000027      0.94678992
    H     -0.00000103     19.64419114     -0.00000026      0.94678975
    H    -15.77192527    -11.96909744      0.00000005      0.94682814
    H      2.47957079     19.64342982     -0.00000007      0.94682798
    H    -14.53045032    -14.11594662      0.00000002      0.94693997
    H      4.95953036     19.64170886      0.00000004      0.94693984
    H    -13.29155760    -16.26304296     -0.00000001      0.94716616
    H      7.43841266     19.64234860     -0.00000000      0.94716605
    H    -12.05191078    -18.42816581      0.00000000      0.94649173
    H      9.93328169     19.65134998     -0.00000000      0.94649176
    H     12.05191026    -18.42816359     -0.00000204      0.94649183
    H     13.29155630    -16.26304053     -0.00000647      0.94716617
    H     14.53044814    -14.11594409     -0.00000664      0.94693991
    H     15.77192290    -11.96909474     -0.00000538      0.94682802
    H     17.01237230     -9.82210009     -0.00000521      0.94678981
    H     18.25150103     -7.67434430     -0.00000538      0.94682804
    H     19.48999113     -5.52577180     -0.00000664      0.94693987
    H     20.72998566     -3.37931251     -0.00000647      0.94716614
    H     21.98521562     -1.22318975     -0.00000204      0.94649180
