  384
Geometry Step: 8
    C      0.14734130      1.74621442     -0.00000000      3.93986309
    C      0.33526422      0.33670669     -0.00000000      3.93984259
    C      1.64983424     -0.20532627     -0.00000000      3.93983935
    C      2.77650708      0.66227567      0.00000000      3.93987566
    C      2.58864170      2.07182195      0.00000000      3.93988049
    C      1.27395821      2.61385860      0.00000000      3.93987157
    C      1.08504906      4.02852813      0.00000000      4.06685175
    C      0.92183312      5.24591543     -0.00000000      3.99283766
    C      0.74097219      6.60502955      0.00000000      4.00044013
    C      0.57939975      7.82765551      0.00000000      4.00044961
    C      0.39896288      9.18682285     -0.00000000      3.99282806
    C      0.23745507     10.40443212      0.00000000      4.06685522
    C      3.71959068      2.94234832     -0.00000000      4.06685205
    C      4.69292904      3.69149816      0.00000000      3.99283601
    C      5.77945729      4.52764585     -0.00000000      4.00044505
    C      6.75697019      5.27949912      0.00000000      4.00044268
    C      7.84350637      6.11560916     -0.00000000      3.99284378
    C      8.81690688      6.86464638      0.00000000      4.06684641
    C      4.09570676      0.11765476     -0.00000000      4.06685965
    C      5.22904099     -0.35584035      0.00000000      3.99284252
    C      6.49588634     -0.88014760     -0.00000000      4.00044872
    C      7.63599234     -1.35028476     -0.00000000      4.00044551
    C      8.90399557     -1.87174019      0.00000000      3.99284803
    C     10.04096897     -2.33635918     -0.00000000      4.06685130
    C     -1.45370324     13.77073329     -0.00000000      3.93986634
    C     -1.26566576     12.36120556      0.00000000      3.93985075
    C      0.04890260     11.81915182     -0.00000000      3.93983175
    C      1.17548362     12.68684981     -0.00000000      3.93987624
    C      0.98756654     14.09639463     -0.00000000      3.93988608
    C     -0.32711841     14.63842969     -0.00000000      3.93986475
    C     -0.51602845     16.05310240      0.00000000      4.06685168
    C     -0.67924526     17.27049006      0.00000000      3.99283421
    C     -0.86010624     18.62960315     -0.00000000      4.00044141
    C     -1.02167836     19.85222821      0.00000000      4.00044738
    C     -1.20211512     21.21139366     -0.00000000      3.99282888
    C     -1.36362361     22.42900389      0.00000000      4.06685394
    C      2.11851283     14.96692296      0.00000000      4.06685160
    C      3.09185194     15.71607067     -0.00000000      3.99283863
    C      4.17838018     16.55221773     -0.00000000      4.00044393
    C      5.15589287     17.30407098      0.00000000      4.00044425
    C      6.24242846     18.14018094     -0.00000000      3.99284296
    C      7.21582902     18.88921818      0.00000000      4.06684780
    C      2.49466445     12.14224830      0.00000000      4.06685311
    C      3.62797751     11.66872708     -0.00000000      3.99284773
    C      4.89481351     11.14441997     -0.00000000      4.00044464
    C      6.03492036     10.67428520      0.00000000      4.00044977
    C      7.30292983     10.15282494      0.00000000      3.99284321
    C      8.43990167      9.68817737      0.00000000      4.06685821
    C     -3.05478155     25.79530559     -0.00000000      3.93986664
    C     -2.86674277     24.38577791      0.00000000      3.93985002
    C     -1.55217490     23.84372376      0.00000000      3.93983219
    C     -0.42559473     24.71142071      0.00000000      3.93987578
    C     -0.61351132     26.12096572     -0.00000000      3.93988653
    C     -1.92819595     26.66300199     -0.00000000      3.93986457
    C     -2.11710629     28.07767495      0.00000000      4.06685184
    C     -2.28032330     29.29506214     -0.00000000      3.99283384
    C     -2.46118422     30.65417419     -0.00000000      4.00044145
    C     -2.62275645     31.87680006      0.00000000      4.00044762
    C     -2.80319326     33.23596741     -0.00000000      3.99282913
    C     -2.96470056     34.45357640      0.00000000      4.06685351
    C      0.51743530     26.99149486      0.00000000      4.06685163
    C      1.49077408     27.74064223     -0.00000000      3.99283862
    C      2.57730216     28.57678934     -0.00000000      4.00044379
    C      3.55481544     29.32864244      0.00000000      4.00044456
    C      4.64135183     30.16475261     -0.00000000      3.99284269
    C      5.61475118     30.91379000      0.00000000      4.06684794
    C      0.89358595     24.16681981      0.00000000      4.06685336
    C      2.02689877     23.69329793     -0.00000000      3.99284767
    C      3.29373491     23.16899110      0.00000000      4.00044487
    C      4.43384217     22.69885735     -0.00000000      4.00044950
    C      5.70185117     22.17739715     -0.00000000      3.99284333
    C      6.83882369     21.71274924     -0.00000000      4.06685823
    C     -4.65585931     37.81987724      0.00000000      3.93986761
    C     -4.46782209     36.41034929      0.00000000      3.93984940
    C     -3.15325411     35.86829575      0.00000000      3.93983287
    C     -2.02667293     36.73599391     -0.00000000      3.93987535
    C     -2.21458729     38.14554043      0.00000000      3.93988770
    C     -3.52927392     38.68757491      0.00000000      3.93986325
    C     -3.71818388     40.10223950     -0.00000000      4.06685443
    C     -3.88139853     41.31961919     -0.00000000      3.99283086
    C     -4.06225767     42.67870343      0.00000000      4.00044416
    C     -4.22384274     43.90131224     -0.00000000      4.00044396
    C     -4.40424664     45.26044963      0.00000000      3.99283428
    C     -4.56563720     46.47805332      0.00000000      4.06685030
    C     -1.08363106     39.01607627     -0.00000000      4.06685048
    C     -0.11028439     39.76522751      0.00000000      3.99284074
    C      0.97626062     40.60139049     -0.00000000      4.00044216
    C      1.95377148     41.35326307      0.00000000      4.00044784
    C      3.04033859     42.18936006      0.00000000      3.99283517
    C      4.01380983     42.93830615      0.00000000      4.06685422
    C     -0.70749147     36.19139214     -0.00000000      4.06685369
    C      0.42582108     35.71787079      0.00000000      3.99284736
    C      1.69265749     35.19356390     -0.00000000      4.00044511
    C      2.83276410     34.72342958      0.00000000      4.00044931
    C      4.10077256     34.20196935     -0.00000000      3.99284350
    C      5.23774474     33.73732128     -0.00000000      4.06685801
    C     11.36067723     -2.87963545     -0.00000000      3.93986957
    C     11.54858645     -4.28914675     -0.00000000      3.93984235
    C     12.86315714     -4.83113628     -0.00000000      3.93983723
    C     13.98980586     -3.96351354     -0.00000000      3.93987788
    C     13.80193993     -2.55397037      0.00000000      3.93987824
    C     12.48725924     -2.01194669      0.00000000      3.93986949
    C     12.29832149     -0.59727509     -0.00000000      4.06685342
    C     12.13511941      0.62011715      0.00000000      3.99283561
    C     11.95425845      1.97923465      0.00000000      4.00044160
    C     11.79268483      3.20186023     -0.00000000      4.00044742
    C     11.61225047      4.56102346      0.00000000      3.99282968
    C     11.45075846      5.77863134     -0.00000000      4.06685239
    C     14.93287929     -1.68344064     -0.00000000      4.06685368
    C     15.90621611     -0.93429059      0.00000000      3.99283524
    C     16.99274342     -0.09814360     -0.00000000      4.00044644
    C     17.97025649      0.65370926      0.00000000      4.00044090
    C     19.05679317      1.48981965      0.00000000      3.99284442
    C     20.03019233      2.23885683      0.00000000      4.06684478
    C     15.30899625     -4.50813462     -0.00000000      4.06686059
    C     16.44232826     -4.98163131      0.00000000      3.99284417
    C     17.70917168     -5.50593761     -0.00000000      4.00044907
    C     18.84927763     -5.97607455     -0.00000000      4.00044503
    C     20.11728064     -6.49753090      0.00000000      3.99284818
    C     21.25425616     -6.96214812     -0.00000000      4.06685091
    C      9.75963329      9.14488415      0.00000000      3.93987297
    C      9.94765478      7.73535194     -0.00000000      3.93985053
    C     11.26222595      7.19334153      0.00000000      3.93983021
    C     12.38878336      8.06106099      0.00000000      3.93987825
    C     12.20086530      9.47060204      0.00000000      3.93988382
    C     10.88618332     10.01262463     -0.00000000      3.93986264
    C     10.69724400     11.42729970      0.00000000      4.06685345
    C     10.53404105     12.64469214     -0.00000000      3.99283208
    C     10.35318013     14.00380813     -0.00000000      4.00044281
    C     10.19160676     15.22643278      0.00000000      4.00044528
    C     10.01117252     16.58559459      0.00000000      3.99283062
    C      9.84968073     17.80320361     -0.00000000      4.06685105
    C     13.33180136     10.34113442      0.00000000      4.06685320
    C     14.30513853     11.09028194     -0.00000000      3.99283788
    C     15.39166575     11.92642878     -0.00000000      4.00044539
    C     16.36917884     12.67828220      0.00000000      4.00044252
    C     17.45571491     13.51439186     -0.00000000      3.99284354
    C     18.42911442     14.26342866      0.00000000      4.06684598
    C     13.70795377      7.51645877      0.00000000      4.06685382
    C     14.84126488      7.04293625     -0.00000000      3.99284950
    C     16.10809893      6.51862982      0.00000000      4.00044498
    C     17.24820602      6.04849527     -0.00000000      4.00044932
    C     18.51621520      5.52703410      0.00000000      3.99284338
    C     19.65318854      5.06238751     -0.00000000      4.06685757
    C      8.15855539     21.16945462      0.00000000      3.93987329
    C      8.34657692     19.75992322     -0.00000000      3.93984965
    C      9.66114781     19.21791319      0.00000000      3.93983050
    C     10.78770500     20.08563155     -0.00000000      3.93987816
    C     10.59978720     21.49517444      0.00000000      3.93988432
    C      9.28510510     22.03719734     -0.00000000      3.93986249
    C      9.09616541     23.45187262      0.00000000      4.06685350
    C      8.93296311     24.66926464     -0.00000000      3.99283166
    C      8.75210250     26.02837939      0.00000000      4.00044285
    C      8.59052880     27.25100476     -0.00000000      4.00044557
    C      8.41009432     28.61016843     -0.00000000      3.99283066
    C      8.24860292     29.82777523      0.00000000      4.06685077
    C     11.73072379     22.36570644     -0.00000000      4.06685309
    C     12.70406145     23.11485395      0.00000000      3.99283800
    C     13.79058856     23.95100038     -0.00000000      4.00044512
    C     14.76810159     24.70285313      0.00000000      4.00044272
    C     15.85463820     25.53896363     -0.00000000      3.99284337
    C     16.82803641     26.28800135      0.00000000      4.06684626
    C     12.10687600     19.54103068      0.00000000      4.06685400
    C     13.24018694     19.06750766     -0.00000000      3.99284938
    C     14.50702085     18.54320155      0.00000000      4.00044518
    C     15.64712810     18.07306766      0.00000000      4.00044909
    C     16.91513706     17.55160655     -0.00000000      3.99284356
    C     18.05211047     17.08695882     -0.00000000      4.06685751
    C      6.55747713     33.19402751      0.00000000      3.93987424
    C      6.74549918     31.78449556     -0.00000000      3.93984899
    C      8.06006916     31.24248559      0.00000000      3.93983122
    C      9.18662669     32.11020506      0.00000000      3.93987744
    C      8.99871126     33.51974818     -0.00000000      3.93988551
    C      7.68402732     34.06177016     -0.00000000      3.93986115
    C      7.49508818     35.47643659      0.00000000      4.06685602
    C      7.33188768     36.69382155     -0.00000000      3.99282885
    C      7.15102893     38.05290897      0.00000000      4.00044549
    C      6.98944310     39.27551698     -0.00000000      4.00044186
    C      6.80904170     40.63465127     -0.00000000      3.99283596
    C      6.64766602     41.85225304      0.00000000      4.06684743
    C     10.12965736     34.39028787      0.00000000      4.06685209
    C     11.10300302     35.13943883     -0.00000000      3.99284008
    C     12.18954691     35.97560137      0.00000000      4.00044352
    C     13.16705769     36.72747397     -0.00000000      4.00044604
    C     14.25362497     37.56357091      0.00000000      3.99283581
    C     15.22709518     38.31251744     -0.00000000      4.06685252
    C     10.50579814     31.56560293     -0.00000000      4.06685441
    C     11.63910845     31.09208006     -0.00000000      3.99284907
    C     12.90594280     30.56777366     -0.00000000      4.00044541
    C     14.04604971     30.09763947      0.00000000      4.00044902
    C     15.31405914     29.57617903     -0.00000000      3.99284367
    C     16.45103153     29.11153154      0.00000000      4.06685730
    C     22.57396342     -7.50542570      0.00000000      3.93986868
    C     22.76187192     -8.91493635      0.00000000      3.93984216
    C     24.07644231     -9.45692638      0.00000000      3.93983694
    C     25.20309091     -8.58930328     -0.00000000      3.93987778
    C     25.01522479     -7.17976030      0.00000000      3.93987777
    C     23.70054448     -6.63773686      0.00000000      3.93986926
    C     23.51160753     -5.22306471     -0.00000000      4.06685305
    C     23.34840419     -4.00567274      0.00000000      3.99283597
    C     23.16754382     -2.64655556     -0.00000000      4.00044183
    C     23.00597066     -1.42392944      0.00000000      4.00044780
    C     22.82553568     -0.06476655     -0.00000000      3.99282996
    C     22.66404372      1.15284107      0.00000000      4.06685211
    C     26.14616365     -6.30923153     -0.00000000      4.06685273
    C     27.11950057     -5.56008159      0.00000000      3.99283559
    C     28.20602733     -4.72393494     -0.00000000      4.00044557
    C     29.18354074     -3.97208166      0.00000000      4.00044162
    C     30.27007744     -3.13597130     -0.00000000      3.99284388
    C     31.24347727     -2.38693400      0.00000000      4.06684581
    C     26.52228036     -9.13392511     -0.00000000      4.06685950
    C     27.65561221     -9.60742098      0.00000000      3.99284466
    C     28.92245594    -10.13172743     -0.00000000      4.00044812
    C     30.06256201    -10.60186429     -0.00000000      4.00044595
    C     31.33056652    -11.12331989      0.00000000      3.99284748
    C     32.46753932    -11.58793999      0.00000000      4.06685185
    C     20.97291859      4.51909346      0.00000000      3.93987218
    C     21.16094052      3.10956219     -0.00000000      3.93985042
    C     22.47551139      2.56755141     -0.00000000      3.93982970
    C     23.60206803      3.43527063      0.00000000      3.93987815
    C     23.41414995      4.84481211      0.00000000      3.93988337
    C     22.09946837      5.38683470     -0.00000000      3.93986258
    C     21.91052945      6.80150958      0.00000000      4.06685285
    C     21.74732578      8.01890169     -0.00000000      3.99283251
    C     21.56646551      9.37801737      0.00000000      4.00044306
    C     21.40489261     10.60064276     -0.00000000      4.00044571
    C     21.22445778     11.95980438      0.00000000      3.99283081
    C     21.06296542     13.17741263     -0.00000000      4.06685081
    C     24.54508554      5.71534279      0.00000000      4.06685221
    C     25.51842338      6.46449085     -0.00000000      3.99283834
    C     26.60494992      7.30063696      0.00000000      4.00044440
    C     27.58246311      8.05249037     -0.00000000      4.00044320
    C     28.66899913      8.88860049      0.00000000      3.99284309
    C     29.64239902      9.63763838     -0.00000000      4.06684707
    C     24.92123828      2.89066846     -0.00000000      4.06685281
    C     26.05454878      2.41714669      0.00000000      3.99284998
    C     27.32138354      1.89284036     -0.00000000      4.00044402
    C     28.46148987      1.42270554      0.00000000      4.00045016
    C     29.72950056      0.90124481     -0.00000000      3.99284265
    C     30.86647181      0.43659552      0.00000000      4.06685888
    C     19.37184130     16.54366535     -0.00000000      3.93987266
    C     19.55986198     15.13413356      0.00000000      3.93984963
    C     20.87443251     14.59212303      0.00000000      3.93983025
    C     22.00098975     15.45984160     -0.00000000      3.93987789
    C     21.81307284     16.86938339      0.00000000      3.93988375
    C     20.49839112     17.41140787      0.00000000      3.93986235
    C     20.30945149     18.82608193     -0.00000000      4.06685278
    C     20.14624754     20.04347507      0.00000000      3.99283237
    C     19.96538738     21.40258948     -0.00000000      4.00044288
    C     19.80381446     22.62521459      0.00000000      4.00044588
    C     19.62337997     23.98437837     -0.00000000      3.99283106
    C     19.46188814     25.20198492      0.00000000      4.06685031
    C     22.94400788     17.73991477     -0.00000000      4.06685206
    C     23.91734578     18.48906225      0.00000000      3.99283846
    C     25.00387213     19.32520851     -0.00000000      4.00044425
    C     25.98138531     20.07706195      0.00000000      4.00044335
    C     27.06792141     20.91317216     -0.00000000      3.99284286
    C     28.04132065     21.66221079      0.00000000      4.06684721
    C     23.32016030     14.91523993     -0.00000000      4.06685305
    C     24.45347054     14.44171731      0.00000000      3.99284989
    C     25.72030543     13.91741102     -0.00000000      4.00044424
    C     26.86041189     13.44727678      0.00000000      4.00044992
    C     28.12842231     12.92581652     -0.00000000      3.99284279
    C     29.26539399     12.46116757      0.00000000      4.06685865
    C     17.77076291     28.56823784     -0.00000000      3.93987345
    C     17.95878487     27.15870618     -0.00000000      3.93984903
    C     19.27335479     26.61669518     -0.00000000      3.93983082
    C     20.39991156     27.48441538     -0.00000000      3.93987727
    C     20.21199622     28.89395832     -0.00000000      3.93988509
    C     18.89731243     29.43598051     -0.00000000      3.93986102
    C     18.70837411     30.85064715      0.00000000      4.06685550
    C     18.54517361     32.06803144     -0.00000000      3.99282924
    C     18.36431496     33.42711883      0.00000000      4.00044576
    C     18.20272894     34.64972741     -0.00000000      4.00044224
    C     18.02232700     36.00886145      0.00000000      3.99283626
    C     17.86095089     37.22646286      0.00000000      4.06684706
    C     21.34294156     29.76449735      0.00000000      4.06685116
    C     22.31628677     30.51364855     -0.00000000      3.99284035
    C     23.40282974     31.34981028     -0.00000000      4.00044260
    C     24.38034100     32.10168277      0.00000000      4.00044680
    C     25.46690877     32.93777984     -0.00000000      3.99283531
    C     26.44037974     33.68672625      0.00000000      4.06685361
    C     21.71908271     26.93981318      0.00000000      4.06685345
    C     22.85239229     26.46629055     -0.00000000      3.99284957
    C     24.11922733     25.94198444      0.00000000      4.00044450
    C     25.25933393     25.47185081     -0.00000000      4.00044977
    C     26.52734381     24.95039031      0.00000000      3.99284288
    C     27.66431461     24.48573955     -0.00000000      4.06685872
    C     33.78724702    -12.13121624     -0.00000000      3.93986904
    C     33.97515647    -13.54072752     -0.00000000      3.93984294
    C     35.28972668    -14.08271808     -0.00000000      3.93983719
    C     36.41637619    -13.21509558      0.00000000      3.93987869
    C     36.22850774    -11.80555267      0.00000000      3.93987835
    C     34.91382718    -11.26352612      0.00000000      3.93987009
    C     34.72489118     -9.84885424     -0.00000000      4.06685346
    C     34.56168869     -8.63146201      0.00000000      3.99283517
    C     34.38082804     -7.27234561     -0.00000000      4.00044115
    C     34.21925471     -6.04972049      0.00000000      4.00044734
    C     34.03882011     -4.69055761     -0.00000000      3.99282914
    C     33.87732758     -3.47295000     -0.00000000      4.06685301
    C     37.35944303    -10.93502499     -0.00000000      4.06685415
    C     38.33277819    -10.18587774      0.00000000      3.99283424
    C     39.41930447     -9.34973046      0.00000000      4.00044784
    C     40.39681080     -8.59787173      0.00000000      4.00044045
    C     41.48335358     -7.76177569     -0.00000000      3.99284648
    C     42.45677768     -7.01277204      0.00000000      4.06684357
    C     37.73556857    -13.75971692      0.00000000      4.06685927
    C     38.86890528    -14.23321464     -0.00000000      3.99284514
    C     40.13576026    -14.75752594      0.00000000      4.00044723
    C     41.27587333    -15.22766178      0.00000000      4.00044725
    C     42.54388756    -15.74913255      0.00000000      3.99284633
    C     43.68085368    -16.21381499     -0.00000000      4.06685140
    C     32.18620327     -0.10669719      0.00000000      3.93987253
    C     32.37422539     -1.51622920     -0.00000000      3.93985105
    C     33.68879535     -2.05823971      0.00000000      3.93982988
    C     34.81535292     -1.19052065      0.00000000      3.93987910
    C     34.62743259      0.21901932     -0.00000000      3.93988365
    C     33.31275123      0.76104478      0.00000000      3.93986319
    C     33.12381376      2.17571937     -0.00000000      4.06685333
    C     32.96061038      3.39311233      0.00000000      3.99283177
    C     32.77974969      4.75222738     -0.00000000      4.00044236
    C     32.61817662      5.97485170      0.00000000      4.00044518
    C     32.43774215      7.33401312      0.00000000      3.99283007
    C     32.27624929      8.55162188     -0.00000000      4.06685168
    C     35.75836529      1.08954966     -0.00000000      4.06685394
    C     36.73170196      1.83869526      0.00000000      3.99283702
    C     37.81822928      2.67484302     -0.00000000      4.00044694
    C     38.79573498      3.42670181      0.00000000      4.00044153
    C     39.88227530      4.26279646      0.00000000      3.99284588
    C     40.85570444      5.01179774     -0.00000000      4.06684502
    C     36.13452759     -1.73512275     -0.00000000      4.06685285
    C     37.26784072     -2.20864777      0.00000000      3.99285018
    C     38.53468705     -2.73295803     -0.00000000      4.00044311
    C     39.67480006     -3.20309180      0.00000000      4.00045161
    C     40.94282092     -3.72456767      0.00000000      3.99284130
    C     42.07978531     -4.18927800     -0.00000000      4.06685852
    C     30.58512513     11.91787393      0.00000000      3.93987290
    C     30.77314690     10.50834243     -0.00000000      3.93985034
    C     32.08771787      9.96633206      0.00000000      3.93983045
    C     33.21427532     10.83404995     -0.00000000      3.93987879
    C     33.02635514     12.24359128      0.00000000      3.93988405
    C     31.71167420     12.78561713     -0.00000000      3.93986316
    C     31.52273519     14.20029233     -0.00000000      4.06685351
    C     31.35953168     15.41768422      0.00000000      3.99283130
    C     31.17867132     16.77679841     -0.00000000      4.00044245
    C     31.01709803     17.99942380      0.00000000      4.00044551
    C     30.83666353     19.35858728     -0.00000000      3.99283018
    C     30.67517204     20.57619398      0.00000000      4.06685118
    C     34.15728791     13.11412079     -0.00000000      4.06685371
    C     35.13062350     13.86326630      0.00000000      3.99283704
    C     36.21714996     14.69941321      0.00000000      4.00044658
    C     37.19465605     15.45127192     -0.00000000      4.00044219
    C     38.28119830     16.28736788      0.00000000      3.99284539
    C     39.25462142     17.03637177     -0.00000000      4.06684503
    C     34.53344871     10.28944770     -0.00000000      4.06685288
    C     35.66676330      9.81592293      0.00000000      3.99285023
    C     36.93360884      9.29161231     -0.00000000      4.00044324
    C     38.07372273      8.82147993      0.00000000      4.00045138
    C     39.34174295      8.30000507     -0.00000000      3.99284138
    C     40.47870711      7.83529369      0.00000000      4.06685823
    C     28.98404750     23.94244696      0.00000000      3.93987397
    C     29.17206884     22.53291481     -0.00000000      3.93984965
    C     30.48663899     21.99090399     -0.00000000      3.93983108
    C     31.61319668     22.85862320     -0.00000000      3.93987842
    C     31.42527768     24.26816568     -0.00000000      3.93988519
    C     30.11059644     24.81019082     -0.00000000      3.93986148
    C     29.92165811     26.22485690      0.00000000      4.06685595
    C     29.75845755     27.44224106     -0.00000000      3.99282841
    C     29.57759868     28.80132811      0.00000000      4.00044518
    C     29.41601234     30.02393606     -0.00000000      4.00044182
    C     29.23561080     31.38307046     -0.00000000      3.99283545
    C     29.07423525     32.60067133      0.00000000      4.06684777
    C     32.55622086     25.13870151      0.00000000      4.06685269
    C     33.52956483     25.88785120     -0.00000000      3.99283930
    C     34.61610858     26.72401422      0.00000000      4.00044489
    C     35.59361228     27.47589299     -0.00000000      4.00044531
    C     36.68018498     28.31197549     -0.00000000      3.99283850
    C     37.65368053     29.06089220      0.00000000      4.06685050
    C     32.93237204     22.31401996      0.00000000      4.06685345
    C     34.06568497     21.84049562     -0.00000000      3.99284969
    C     35.33253147     21.31618575     -0.00000000      4.00044358
    C     36.47264435     20.84605248      0.00000000      4.00045120
    C     37.74066462     20.32457689     -0.00000000      3.99284166
    C     38.87762871     19.85986591     -0.00000000      4.06685812
