  108
Geometry Step: 29
    C      7.26211847     13.84504654      0.48096566      4.05778835
    C      7.27797474     15.06401252      0.47920041      4.06277358
    C      9.72724520     12.41788122      0.40077366      4.07169364
    C     10.79026956     13.01529837      0.42895389      4.05331315
    C      9.72110678      9.58948882      0.06687501      4.04799147
    C     10.79430931      9.00767018      0.03770443      4.06142553
    C     12.02738567      8.28328916     -0.01095628      3.90913985
    C     12.00040628      6.88558545     -0.31387769      3.96147129
    C     13.20272860      6.17012270     -0.45101940      3.90786798
    C     14.46370929      6.82119396     -0.18486045      3.97782740
    C     14.49030888      8.21468145      0.27023764      3.85134372
    C     13.25304001      8.93852150      0.24739019      3.96228748
    C     13.26112188     10.35403279      0.43695669      4.01893621
    C      6.01090341      4.86530359     -0.64237000      3.93484506
    C     13.25332188     11.57649000      0.45241882      4.07407681
    C      6.01723980      3.45015841     -0.58670884      3.94111883
    C      7.24685865      2.74946931     -0.48806405      3.93184899
    C      8.47326527      3.45921070     -0.52146138      3.94126141
    C      8.46492772      4.87687889     -0.56282765      3.93100882
    C      7.23503020      5.57991639     -0.58556036      3.93971495
    C      7.22994054      7.00609841     -0.48015116      4.05716306
    C      7.24634525      8.20434534     -0.25745263      4.06327165
    C      9.69937766      5.59543721     -0.51905568      4.07190177
    C     10.74800932      6.21162392     -0.45835928      4.05453423
    C      9.71666829      2.75273551     -0.46502276      4.04886540
    C     10.78781914      2.16911741     -0.43332320      4.06124837
    C      0.13983016      8.23861290     -0.13217518      3.99014935
    C      0.10236919      6.94426053     -0.60283653      4.01569644
    C      1.24503980      6.15894271     -0.85220132      3.88369824
    C      2.46781004      6.88216351     -0.63789014      3.93670033
    C      2.49831636      8.27010235     -0.29660319      3.93493476
    C      1.30500893      9.01772440     -0.02396454      3.88104602
    C      1.32654213     10.42264234      0.18865480      4.03668628
    C      1.33938057     11.64279825      0.13426012      4.03121050
    C      3.75832034      8.94781255     -0.19102515      4.06573996
    C      4.77957277      9.60568636     -0.06976066      4.05485149
    C      3.71164427      6.17951228     -0.72462984      4.06379938
    C      4.76887983      5.57377935     -0.68846097      4.05494088
    C      6.02226217     11.72069746      0.27290683      3.93521937
    C      6.01752157     10.31796030      0.06339491      3.94170500
    C      7.24942004      9.61473626     -0.02395332      3.93194157
    C      8.48085388     10.30429633      0.12603618      3.94168008
    C      0.13543601     15.18842496      0.59789048      4.00572498
    C      0.16681508     13.84911500      0.27208034      4.01739184
    C      1.32910780     13.05855692      0.25300077      3.88879407
    C      2.52518573     13.81916020      0.47047748      3.93578169
    C      2.50623139     15.23729625      0.64345641      3.93711167
    C      1.28552136     15.99039555      0.74008365      3.87919382
    C      1.28591398     17.41317161      0.75668387      4.03990552
    C      1.32726468     18.61167539      0.52301908      4.03093949
    C      3.75629256     15.93833947      0.63193756      4.06692961
    C      4.82158792     16.51796504      0.50020131      4.05358263
    C      3.77868170     13.12539887      0.43303420      4.06399606
    C      4.79010970     12.44743979      0.35297740      4.05553234
    C     11.97028210     -5.39401180      0.59263646      3.91224045
    C     11.95702693     -6.81143363      0.76919030      3.95874592
    C     15.69740478      8.85072598      0.57281885      4.10240781
    C     16.80610390      9.36780492      0.82158268      4.47700640
    C     15.66496428      6.19818758     -0.47236417      4.02988728
    C     16.96321385      6.36275618     -0.22114471      3.79667513
    C     13.17272200     -7.52404384      0.77489206      3.91490837
    C     14.40250374     -6.86579945      0.41324941      3.97174429
    C     14.39217268     -5.44318930      0.05924059      3.85452713
    C     13.17998172     -4.71727756      0.31135634      3.96252032
    C     13.18317031     -3.29237048      0.22338514      4.01402144
    C     13.18650163     -2.06920561      0.27959451      4.07689812
    C     15.54502954     -4.78829052     -0.37872632      4.10571499
    C     16.58278924     -4.24891686     -0.81620213      4.46265129
    C     15.63212029     -7.50666736      0.50666238      4.02060339
    C     16.88555234     -7.37311927      0.07189670      3.80604409
    C      5.99034454     -1.91720430      0.52852871      3.93372099
    C      5.98376177     -3.31213298      0.78103655      3.94206372
    C      7.20832543     -4.03112485      0.80402646      3.93234820
    C      8.44032328     -3.34877293      0.62680710      3.94183292
    C     12.01925524      1.44738090     -0.35248224      3.91314347
    C     11.98269743      0.04471338     -0.07855029      3.95797212
    C     13.18933742     -0.65346584      0.11302605      3.91412061
    C     14.45803884      0.02362582     -0.01076834      3.96345898
    C     14.50435490      1.41360457     -0.48042282      3.85086244
    C     13.25214813      2.11681239     -0.53647864      3.96207461
    C     13.25084249      3.53764081     -0.69169274      4.01409721
    C     13.19550177      4.76044955     -0.66400186      4.07467826
    C     15.71384753      2.08645638     -0.67212261      4.10023169
    C     16.80219019      2.67691401     -0.82976156      4.47684542
    C     15.62024513     -0.53332766      0.50113406      4.02747924
    C     16.94489393     -0.41803826      0.50821902      3.80580647
    C      8.44828957     -1.95029842      0.38341810      3.93058749
    C      7.22108599     -1.24336243      0.31105889      3.94001967
    C      7.22448919      0.15349158      0.00965599      4.05672512
    C      7.24387765      1.33424944     -0.29053080      4.06342510
    C      9.68769592     -1.25611549      0.19611233      4.07126039
    C     10.72962229     -0.63873142      0.04941286      4.05347202
    C      9.67477345     -4.07278932      0.65137239      4.04945522
    C     10.74030142     -4.66750595      0.65148778      4.06183866
    C      0.11901523      1.37127814     -0.51434895      3.99921625
    C      0.10743705      0.15565363      0.13518481      4.00715437
    C      1.25667100     -0.57085807      0.49259510      3.88301906
    C      2.46946808      0.11254024      0.14611469      3.93595419
    C      2.47509420      1.44060952     -0.38534269      3.93536381
    C      1.27353511      2.14222293     -0.73768281      3.87915287
    C      1.26903265      3.52990273     -1.06288823      4.03609364
    C      1.23509259      4.75197684     -1.07678387      4.03970583
    C      3.72908508      2.11663072     -0.51959143      4.06510356
    C      4.77993561      2.73208431     -0.56438529      4.05595161
    C      3.71940800     -0.55918340      0.34615451      4.06228873
    C      4.75613586     -1.19438703      0.44576256      4.05760582
    C      7.25618703     12.41781675      0.37827693      3.93927936
    C      8.48433746     11.71102620      0.31925895      3.93039208
