   48
Geometry Step: 26
    C      6.00762504      4.88905555      0.01744210      3.93805260
    C      6.00799324      3.47017978      0.01529331      3.93808167
    C      7.23670657      2.76063763      0.01326263      3.93804176
    C      8.46540718      3.47025551      0.01291776      3.93805317
    C      8.46514798      4.88923675      0.01467502      3.93808421
    C      7.23628844      5.59872641      0.01717102      3.93804133
    C      7.23564496      7.03111126      0.01866638      4.06192982
    C      7.23389110      8.25016447      0.01922716      4.06193490
    C      9.70546439      5.60547098      0.01379789      4.06194974
    C     10.76109881      6.21505526      0.01278848      4.06194822
    C      9.70572608      2.75383453      0.01100771      4.06192666
    C     10.76056041      2.14280242      0.00995946      4.06194376
    C      0.01243631      8.34911955      0.01413414      3.93804600
    C      0.01401250      6.93014215      0.01303521      3.93807728
    C      1.24343684      6.22168857      0.01426018      3.93805395
    C      2.47166499      6.93215408      0.01712246      3.93804627
    C      2.47015239      8.35113238      0.01803664      3.93807860
    C      1.24068655      9.05965179      0.01626377      3.93805567
    C      1.23975612     10.49212763      0.01666161      4.06194700
    C      1.24125806     11.71116073      0.01660813      4.06193542
    C      3.70993906      9.06828918      0.02007286      4.06195001
    C      4.76535766      9.67819911      0.02088668      4.06194603
    C      3.71250136      6.21656197      0.01842039      4.06194424
    C      4.76705702      5.60504661      0.01875551      4.06192429
    C      6.00950952     -2.03189848      0.01084483      3.93805686
    C      6.00854514     -3.45081297      0.01114752      3.93807578
    C      7.23671610     -4.16145010      0.01004433      3.93804443
    C      8.46601842     -3.45277009      0.00841203      3.93806172
    C      8.46691141     -2.03377315      0.00839596      3.93807675
    C      7.23871051     -1.32317579      0.00975685      3.93804218
    C      7.23910420      0.10921428      0.01027810      4.06193560
    C      7.23678762      1.32825153      0.01150096      4.06192346
    C      9.70773942     -1.31847242      0.00751356      4.06195031
    C     10.76353797     -0.70918786      0.00760128      4.06195059
    C      9.70622513     -4.16950991      0.00680505      4.06194093
    C     10.76280867     -4.77752183      0.00528657      4.06193799
    C      0.01433991      1.42819063      0.00859358      3.93805192
    C      0.01455798      0.00916815      0.00768176      3.93807276
    C      1.24343652     -0.70039806      0.00795850      3.93805933
    C      2.47228349      0.00910521      0.00945372      3.93805138
    C      2.47193010      1.42809521      0.01044157      3.93807423
    C      1.24314451      2.13775645      0.00982850      3.93805185
    C      1.24328601      3.57021599      0.01113312      4.06195106
    C      1.24420867      4.78926929      0.01271277      4.06192454
    C      3.71223618      2.14431451      0.01239988      4.06194786
    C      4.76774410      2.75399537      0.01441874      4.06195154
    C      3.71298228     -0.70683028      0.01024826      4.06195693
    C      4.76928680     -1.31532917      0.01108957      4.06191739
